* NGSPICE file created from SDC_pex.ext - technology: sky130A

.subckt SDC_pex VDD VSS N2_R DOUT
X0 N3_S INTERNAL_SDC_0.OSC_PGATE_0.OSC_0.INVandCAP_0[3].VOUT VDD VDD sky130_fd_pr__pfet_01v8_hvt ad=0.135 pd=1.27 as=0.26 ps=2.52 w=1 l=0.15
X1 INTERNAL_SDC_0.OSC_PGATE_1.OSC_0.x2_out VSS sky130_fd_pr__cap_mim_m3_1 l=10 w=10
X2 N3_R INTERNAL_SDC_0.OSC_PGATE_1.OSC_0.INVandCAP_0[3].VOUT VDD VDD sky130_fd_pr__pfet_01v8_hvt ad=0.135 pd=1.27 as=0.26 ps=2.52 w=1 l=0.15
X3 VSS INTERNAL_SDC_0.OSC_PGATE_0.OSC_0.BUFFMIN_0.sky130_fd_sc_hd__inv_1_0.Y INTERNAL_SDC_0.N2_S VSS sky130_fd_pr__nfet_01v8 ad=0.169 pd=1.82 as=0.08775 ps=0.92 w=0.65 l=0.15
X4 VDD INTERNAL_SDC_0.OSC_PGATE_0.OSC_0.x2_out INTERNAL_SDC_0.OSC_PGATE_0.OSC_0.INVandCAP_0[3].VOUT VDD sky130_fd_pr__pfet_01v8_hvt ad=0.26 pd=2.52 as=0.135 ps=1.27 w=1 l=0.15
X5 VDD INTERNAL_SDC_0.OSC_PGATE_1.OSC_0.x2_out INTERNAL_SDC_0.OSC_PGATE_1.OSC_0.INVandCAP_0[3].VOUT VDD sky130_fd_pr__pfet_01v8_hvt ad=0.26 pd=2.52 as=0.135 ps=1.27 w=1 l=0.15
X6 VSS VSS VSS sky130_fd_pr__res_high_po_5p73 l=8
X7 INTERNAL_SDC_0.OSC_PGATE_0.OSC_0.N1 SENS_IN VSS VSS sky130_fd_pr__nfet_01v8 ad=0.08775 pd=0.92 as=0.169 ps=1.82 w=0.65 l=0.15
X8 INTERNAL_SDC_0.OSC_PGATE_0.OSC_0.x2_out INTERNAL_SDC_0.OSC_PGATE_0.OSC_0.x1_out VDD VDD sky130_fd_pr__pfet_01v8_hvt ad=0.135 pd=1.27 as=0.26 ps=2.52 w=1 l=0.15
X9 VDD INTERNAL_SDC_0.OSC_PGATE_0.OSC_0.x1_out INTERNAL_SDC_0.OSC_PGATE_0.OSC_0.x2_out VDD sky130_fd_pr__pfet_01v8_hvt ad=0.26 pd=2.52 as=0.135 ps=1.27 w=1 l=0.15
X10 VDD INTERNAL_SDC_0.OSC_PGATE_0.OSC_0.x2_out INTERNAL_SDC_0.OSC_PGATE_0.OSC_0.INVandCAP_0[3].VOUT VDD sky130_fd_pr__pfet_01v8_hvt ad=0.26 pd=2.52 as=0.135 ps=1.27 w=1 l=0.15
X11 VSS a_n10739_n4824# a_n10642_n4576# VSS sky130_fd_pr__nfet_01v8 ad=0.29 pd=2.58 as=0.29 ps=2.58 w=1 l=0.15
X12 INTERNAL_SDC_0.OSC_PGATE_1.PASSGATE_0.sky130_fd_sc_hd__inv_1$1_0.Y VDD VSS VSS sky130_fd_pr__nfet_01v8 ad=0.169 pd=1.82 as=0.169 ps=1.82 w=0.65 l=0.15
X13 INTERNAL_SDC_0.OSC_PGATE_1.OSC_0.x1_out INTERNAL_SDC_0.OSC_PGATE_1.OSC_0.N1 VSS VSS sky130_fd_pr__nfet_01v8 ad=0.08775 pd=0.92 as=0.169 ps=1.82 w=0.65 l=0.15
X14 VDD SENS_IN INTERNAL_SDC_0.OSC_PGATE_0.OSC_0.N1 VDD sky130_fd_pr__pfet_01v8_hvt ad=0.26 pd=2.52 as=0.135 ps=1.27 w=1 l=0.15
X15 VDD INTERNAL_SDC_0.OSC_PGATE_0.OSC_0.INVandCAP_0[3].VOUT N3_S VDD sky130_fd_pr__pfet_01v8_hvt ad=0.26 pd=2.52 as=0.135 ps=1.27 w=1 l=0.15
X16 VSS INTERNAL_SDC_0.OSC_PGATE_1.OSC_0.x1_out INTERNAL_SDC_0.OSC_PGATE_1.OSC_0.x2_out VSS sky130_fd_pr__nfet_01v8 ad=0.169 pd=1.82 as=0.08775 ps=0.92 w=0.65 l=0.15
X17 INTERNAL_SDC_0.OSC_PGATE_1.OSC_0.INVandCAP_0[3].VOUT VSS sky130_fd_pr__cap_mim_m3_2 l=10 w=10
X18 VSS INTERNAL_SDC_0.OSC_PGATE_1.OSC_0.INVandCAP_0[3].VOUT N3_R VSS sky130_fd_pr__nfet_01v8 ad=0.169 pd=1.82 as=0.08775 ps=0.92 w=0.65 l=0.15
X19 VDD SENS_IN INTERNAL_SDC_0.OSC_PGATE_0.OSC_0.N1 VDD sky130_fd_pr__pfet_01v8_hvt ad=0.26 pd=2.52 as=0.135 ps=1.27 w=1 l=0.15
X20 VSS INTERNAL_SDC_0.OSC_PGATE_1.OSC_0.N1 INTERNAL_SDC_0.OSC_PGATE_1.OSC_0.x1_out VSS sky130_fd_pr__nfet_01v8 ad=0.169 pd=1.82 as=0.08775 ps=0.92 w=0.65 l=0.15
X21 VSS INTERNAL_SDC_0.OSC_PGATE_1.OSC_0.INVandCAP_0[3].VOUT N3_R VSS sky130_fd_pr__nfet_01v8 ad=0.169 pd=1.82 as=0.08775 ps=0.92 w=0.65 l=0.15
X22 INTERNAL_SDC_0.OSC_PGATE_0.OSC_0.N1 SENS_IN VSS VSS sky130_fd_pr__nfet_01v8 ad=0.08775 pd=0.92 as=0.169 ps=1.82 w=0.65 l=0.15
X23 VSS INTERNAL_SDC_0.OSC_PGATE_1.OSC_0.BUFFMIN_0.sky130_fd_sc_hd__inv_1_0.Y N2_R VSS sky130_fd_pr__nfet_01v8 ad=0.169 pd=1.82 as=0.08775 ps=0.92 w=0.65 l=0.15
X24 a_n10312_n3776# a_n10739_n4824# DOUT VSS sky130_fd_pr__nfet_01v8 ad=0.29 pd=2.58 as=0.29 ps=2.58 w=1 l=0.15
X25 INTERNAL_SDC_0.OSC_PGATE_1.OSC_0.N1 REF_IN VDD VDD sky130_fd_pr__pfet_01v8_hvt ad=0.135 pd=1.27 as=0.26 ps=2.52 w=1 l=0.15
X26 N3_R INTERNAL_SDC_0.OSC_PGATE_1.OSC_0.INVandCAP_0[3].VOUT VDD VDD sky130_fd_pr__pfet_01v8_hvt ad=0.135 pd=1.27 as=0.26 ps=2.52 w=1 l=0.15
X27 VDD SENS_IN INTERNAL_SDC_0.OSC_PGATE_0.OSC_0.N1 VDD sky130_fd_pr__pfet_01v8_hvt ad=0.26 pd=2.52 as=0.135 ps=1.27 w=1 l=0.15
X28 VDD INTERNAL_SDC_0.OSC_PGATE_1.OSC_0.N1 INTERNAL_SDC_0.OSC_PGATE_1.OSC_0.x1_out VDD sky130_fd_pr__pfet_01v8_hvt ad=0.26 pd=2.52 as=0.135 ps=1.27 w=1 l=0.15
X29 VSS INTERNAL_SDC_0.OSC_PGATE_0.OSC_0.x2_out INTERNAL_SDC_0.OSC_PGATE_0.OSC_0.INVandCAP_0[3].VOUT VSS sky130_fd_pr__nfet_01v8 ad=0.169 pd=1.82 as=0.08775 ps=0.92 w=0.65 l=0.15
X30 INTERNAL_SDC_0.OSC_PGATE_1.OSC_0.x1_out VSS sky130_fd_pr__cap_mim_m3_1 l=10 w=10
X31 INTERNAL_SDC_0.OSC_PGATE_1.OSC_0.BUFFMIN_0.sky130_fd_sc_hd__inv_1_0.Y INTERNAL_SDC_0.OSC_PGATE_1.OSC_0.INVandCAP_0[3].VOUT VDD VDD sky130_fd_pr__pfet_01v8_hvt ad=0.26 pd=2.52 as=0.26 ps=2.52 w=1 l=0.15
X32 VSS INTERNAL_SDC_0.OSC_PGATE_0.OSC_0.x1_out INTERNAL_SDC_0.OSC_PGATE_0.OSC_0.x2_out VSS sky130_fd_pr__nfet_01v8 ad=0.169 pd=1.82 as=0.08775 ps=0.92 w=0.65 l=0.15
X33 VSS INTERNAL_SDC_0.OSC_PGATE_0.OSC_0.x2_out INTERNAL_SDC_0.OSC_PGATE_0.OSC_0.INVandCAP_0[3].VOUT VSS sky130_fd_pr__nfet_01v8 ad=0.169 pd=1.82 as=0.08775 ps=0.92 w=0.65 l=0.15
X34 INTERNAL_SDC_0.OSC_PGATE_1.OSC_0.INVandCAP_0[3].VOUT INTERNAL_SDC_0.OSC_PGATE_1.OSC_0.x2_out VSS VSS sky130_fd_pr__nfet_01v8 ad=0.08775 pd=0.92 as=0.169 ps=1.82 w=0.65 l=0.15
X35 INTERNAL_SDC_0.OSC_PGATE_1.OSC_0.x1_out VSS sky130_fd_pr__cap_mim_m3_2 l=10 w=10
X36 INTERNAL_SDC_0.OSC_PGATE_0.OSC_0.x2_out VSS sky130_fd_pr__cap_mim_m3_2 l=10 w=10
X37 VDD INTERNAL_SDC_0.OSC_PGATE_1.OSC_0.INVandCAP_0[3].VOUT N3_R VDD sky130_fd_pr__pfet_01v8_hvt ad=0.26 pd=2.52 as=0.135 ps=1.27 w=1 l=0.15
X38 VSS INTERNAL_SDC_0.OSC_PGATE_0.OSC_0.N1 INTERNAL_SDC_0.OSC_PGATE_0.OSC_0.x1_out VSS sky130_fd_pr__nfet_01v8 ad=0.169 pd=1.82 as=0.08775 ps=0.92 w=0.65 l=0.15
X39 VSS REF_IN INTERNAL_SDC_0.OSC_PGATE_1.OSC_0.N1 VSS sky130_fd_pr__nfet_01v8 ad=0.169 pd=1.82 as=0.08775 ps=0.92 w=0.65 l=0.15
X40 INTERNAL_SDC_0.OSC_PGATE_0.OSC_0.x2_out VSS sky130_fd_pr__cap_mim_m3_2 l=10 w=10
X41 INTERNAL_SDC_0.OSC_PGATE_0.VIN VSS sky130_fd_pr__cap_mim_m3_2 l=10 w=10
X42 INTERNAL_SDC_0.OSC_PGATE_1.OSC_0.x2_out VSS sky130_fd_pr__cap_mim_m3_1 l=10 w=10
X43 INTERNAL_SDC_0.OSC_PGATE_1.OSC_0.x2_out VSS sky130_fd_pr__cap_mim_m3_1 l=10 w=10
X44 VSS INTERNAL_SDC_0.OSC_PGATE_0.OSC_0.N1 INTERNAL_SDC_0.OSC_PGATE_0.OSC_0.x1_out VSS sky130_fd_pr__nfet_01v8 ad=0.169 pd=1.82 as=0.08775 ps=0.92 w=0.65 l=0.15
X45 SENS_IN INTERNAL_SDC_0.OSC_PGATE_0.PASSGATE_0.sky130_fd_sc_hd__inv_1$1_0.Y INTERNAL_SDC_0.OSC_PGATE_0.VIN VDD sky130_fd_pr__pfet_01v8 ad=0.165 pd=1.33 as=0.165 ps=1.33 w=1 l=0.15
X46 VDD INTERNAL_SDC_0.N2_S a_n10642_n3576# VDD sky130_fd_pr__pfet_01v8 ad=0.29 pd=2.58 as=0.29 ps=2.58 w=1 l=0.15
X47 INTERNAL_SDC_0.OSC_PGATE_1.PASSGATE_0.sky130_fd_sc_hd__inv_1$1_0.Y VDD VDD VDD sky130_fd_pr__pfet_01v8_hvt ad=0.26 pd=2.52 as=0.26 ps=2.52 w=1 l=0.15
X48 VSS INTERNAL_SDC_0.OSC_PGATE_1.OSC_0.x1_out INTERNAL_SDC_0.OSC_PGATE_1.OSC_0.x2_out VSS sky130_fd_pr__nfet_01v8 ad=0.169 pd=1.82 as=0.08775 ps=0.92 w=0.65 l=0.15
X49 VSS INTERNAL_SDC_0.OSC_PGATE_1.OSC_0.x2_out INTERNAL_SDC_0.OSC_PGATE_1.OSC_0.INVandCAP_0[3].VOUT VSS sky130_fd_pr__nfet_01v8 ad=0.169 pd=1.82 as=0.08775 ps=0.92 w=0.65 l=0.15
X50 VDD INTERNAL_SDC_0.OSC_PGATE_1.OSC_0.INVandCAP_0[3].VOUT N3_R VDD sky130_fd_pr__pfet_01v8_hvt ad=0.26 pd=2.52 as=0.135 ps=1.27 w=1 l=0.15
X51 INTERNAL_SDC_0.OSC_PGATE_1.OSC_0.N1 REF_IN VDD VDD sky130_fd_pr__pfet_01v8_hvt ad=0.135 pd=1.27 as=0.26 ps=2.52 w=1 l=0.15
X52 INTERNAL_SDC_0.OSC_PGATE_0.OSC_0.INVandCAP_0[3].VOUT VSS sky130_fd_pr__cap_mim_m3_2 l=10 w=10
X53 INTERNAL_SDC_0.OSC_PGATE_0.PASSGATE_0.sky130_fd_sc_hd__inv_1$1_0.Y DOUT VSS VSS sky130_fd_pr__nfet_01v8 ad=0.169 pd=1.82 as=0.169 ps=1.82 w=0.65 l=0.15
X54 INTERNAL_SDC_0.OSC_PGATE_0.OSC_0.x2_out VSS sky130_fd_pr__cap_mim_m3_1 l=10 w=10
X55 INTERNAL_SDC_0.OSC_PGATE_0.OSC_0.INVandCAP_0[3].VOUT INTERNAL_SDC_0.OSC_PGATE_0.OSC_0.x2_out VDD VDD sky130_fd_pr__pfet_01v8_hvt ad=0.135 pd=1.27 as=0.26 ps=2.52 w=1 l=0.15
X56 VDD REF_IN INTERNAL_SDC_0.OSC_PGATE_1.OSC_0.N1 VDD sky130_fd_pr__pfet_01v8_hvt ad=0.26 pd=2.52 as=0.135 ps=1.27 w=1 l=0.15
X57 INTERNAL_SDC_0.OSC_PGATE_0.OSC_0.x1_out INTERNAL_SDC_0.OSC_PGATE_0.OSC_0.N1 VDD VDD sky130_fd_pr__pfet_01v8_hvt ad=0.135 pd=1.27 as=0.26 ps=2.52 w=1 l=0.15
X58 INTERNAL_SDC_0.OSC_PGATE_0.VIN DOUT SENS_IN VSS sky130_fd_pr__nfet_01v8 ad=0.31 pd=2.62 as=0.165 ps=1.33 w=1 l=0.15
X59 INTERNAL_SDC_0.OSC_PGATE_1.OSC_0.N1 REF_IN VDD VDD sky130_fd_pr__pfet_01v8_hvt ad=0.135 pd=1.27 as=0.26 ps=2.52 w=1 l=0.15
X60 VSS INTERNAL_SDC_0.OSC_PGATE_1.OSC_0.x1_out INTERNAL_SDC_0.OSC_PGATE_1.OSC_0.x2_out VSS sky130_fd_pr__nfet_01v8 ad=0.169 pd=1.82 as=0.08775 ps=0.92 w=0.65 l=0.15
X61 VDD INTERNAL_SDC_0.OSC_PGATE_0.OSC_0.x2_out INTERNAL_SDC_0.OSC_PGATE_0.OSC_0.INVandCAP_0[3].VOUT VDD sky130_fd_pr__pfet_01v8_hvt ad=0.26 pd=2.52 as=0.135 ps=1.27 w=1 l=0.15
X62 VSS INTERNAL_SDC_0.OSC_PGATE_1.OSC_0.x2_out INTERNAL_SDC_0.OSC_PGATE_1.OSC_0.INVandCAP_0[3].VOUT VSS sky130_fd_pr__nfet_01v8 ad=0.169 pd=1.82 as=0.08775 ps=0.92 w=0.65 l=0.15
X63 SENS_IN VSS sky130_fd_pr__cap_mim_m3_2 l=10 w=10
X64 VDD INTERNAL_SDC_0.OSC_PGATE_0.OSC_0.x1_out INTERNAL_SDC_0.OSC_PGATE_0.OSC_0.x2_out VDD sky130_fd_pr__pfet_01v8_hvt ad=0.26 pd=2.52 as=0.135 ps=1.27 w=1 l=0.15
X65 INTERNAL_SDC_0.OSC_PGATE_1.VIN INTERNAL_SDC_0.OSC_PGATE_1.PASSGATE_0.sky130_fd_sc_hd__inv_1$1_0.Y REF_IN VDD sky130_fd_pr__pfet_01v8 ad=0.165 pd=1.33 as=0.165 ps=1.33 w=1 l=0.15
X66 VDD SENS_IN INTERNAL_SDC_0.OSC_PGATE_0.OSC_0.N1 VDD sky130_fd_pr__pfet_01v8_hvt ad=0.26 pd=2.52 as=0.135 ps=1.27 w=1 l=0.15
X67 INTERNAL_SDC_0.OSC_PGATE_1.OSC_0.INVandCAP_0[3].VOUT INTERNAL_SDC_0.OSC_PGATE_1.OSC_0.x2_out VSS VSS sky130_fd_pr__nfet_01v8 ad=0.08775 pd=0.92 as=0.169 ps=1.82 w=0.65 l=0.15
X68 VSS INTERNAL_SDC_0.OSC_PGATE_0.OSC_0.INVandCAP_0[3].VOUT N3_S VSS sky130_fd_pr__nfet_01v8 ad=0.169 pd=1.82 as=0.08775 ps=0.92 w=0.65 l=0.15
X69 INTERNAL_SDC_0.OSC_PGATE_0.VIN INTERNAL_SDC_0.OSC_PGATE_0.PASSGATE_0.sky130_fd_sc_hd__inv_1$1_0.Y SENS_IN VDD sky130_fd_pr__pfet_01v8 ad=0.165 pd=1.33 as=0.165 ps=1.33 w=1 l=0.15
X70 VSS INTERNAL_SDC_0.OSC_PGATE_1.OSC_0.x1_out INTERNAL_SDC_0.OSC_PGATE_1.OSC_0.x2_out VSS sky130_fd_pr__nfet_01v8 ad=0.169 pd=1.82 as=0.08775 ps=0.92 w=0.65 l=0.15
X71 INTERNAL_SDC_0.OSC_PGATE_1.OSC_0.N1 VSS sky130_fd_pr__cap_mim_m3_2 l=10 w=10
X72 VSS INTERNAL_SDC_0.OSC_PGATE_0.OSC_0.x1_out INTERNAL_SDC_0.OSC_PGATE_0.OSC_0.x2_out VSS sky130_fd_pr__nfet_01v8 ad=0.169 pd=1.82 as=0.08775 ps=0.92 w=0.65 l=0.15
X73 VSS INTERNAL_SDC_0.OSC_PGATE_0.OSC_0.N1 INTERNAL_SDC_0.OSC_PGATE_0.OSC_0.x1_out VSS sky130_fd_pr__nfet_01v8 ad=0.169 pd=1.82 as=0.08775 ps=0.92 w=0.65 l=0.15
X74 VSS INTERNAL_SDC_0.OSC_PGATE_0.OSC_0.INVandCAP_0[3].VOUT N3_S VSS sky130_fd_pr__nfet_01v8 ad=0.169 pd=1.82 as=0.08775 ps=0.92 w=0.65 l=0.15
X75 INTERNAL_SDC_0.OSC_PGATE_1.OSC_0.N1 REF_IN VDD VDD sky130_fd_pr__pfet_01v8_hvt ad=0.135 pd=1.27 as=0.26 ps=2.52 w=1 l=0.15
X76 INTERNAL_SDC_0.OSC_PGATE_1.OSC_0.x1_out INTERNAL_SDC_0.OSC_PGATE_1.OSC_0.N1 VDD VDD sky130_fd_pr__pfet_01v8_hvt ad=0.135 pd=1.27 as=0.26 ps=2.52 w=1 l=0.15
X77 INTERNAL_SDC_0.OSC_PGATE_1.OSC_0.x1_out VSS sky130_fd_pr__cap_mim_m3_1 l=10 w=10
X78 VSS INTERNAL_SDC_0.OSC_PGATE_0.OSC_0.N1 INTERNAL_SDC_0.OSC_PGATE_0.OSC_0.x1_out VSS sky130_fd_pr__nfet_01v8 ad=0.169 pd=1.82 as=0.08775 ps=0.92 w=0.65 l=0.15
X79 VSS INTERNAL_SDC_0.OSC_PGATE_1.OSC_0.N1 INTERNAL_SDC_0.OSC_PGATE_1.OSC_0.x1_out VSS sky130_fd_pr__nfet_01v8 ad=0.169 pd=1.82 as=0.08775 ps=0.92 w=0.65 l=0.15
X80 VSS SENS_IN INTERNAL_SDC_0.OSC_PGATE_0.OSC_0.N1 VSS sky130_fd_pr__nfet_01v8 ad=0.169 pd=1.82 as=0.08775 ps=0.92 w=0.65 l=0.15
X81 REF_IN INTERNAL_SDC_0.OSC_PGATE_1.PASSGATE_0.sky130_fd_sc_hd__inv_1$1_0.Y INTERNAL_SDC_0.OSC_PGATE_1.VIN VDD sky130_fd_pr__pfet_01v8 ad=0.165 pd=1.33 as=0.165 ps=1.33 w=1 l=0.15
X82 SENS_IN VSS sky130_fd_pr__cap_mim_m3_1 l=10 w=10
X83 VDD INTERNAL_SDC_0.OSC_PGATE_1.OSC_0.x2_out INTERNAL_SDC_0.OSC_PGATE_1.OSC_0.INVandCAP_0[3].VOUT VDD sky130_fd_pr__pfet_01v8_hvt ad=0.26 pd=2.52 as=0.135 ps=1.27 w=1 l=0.15
X84 VDD INTERNAL_SDC_0.OSC_PGATE_1.OSC_0.x2_out INTERNAL_SDC_0.OSC_PGATE_1.OSC_0.INVandCAP_0[3].VOUT VDD sky130_fd_pr__pfet_01v8_hvt ad=0.26 pd=2.52 as=0.135 ps=1.27 w=1 l=0.15
X85 N3_R INTERNAL_SDC_0.OSC_PGATE_1.OSC_0.INVandCAP_0[3].VOUT VSS VSS sky130_fd_pr__nfet_01v8 ad=0.08775 pd=0.92 as=0.169 ps=1.82 w=0.65 l=0.15
X86 N3_S INTERNAL_SDC_0.OSC_PGATE_0.OSC_0.INVandCAP_0[3].VOUT VDD VDD sky130_fd_pr__pfet_01v8_hvt ad=0.135 pd=1.27 as=0.26 ps=2.52 w=1 l=0.15
X87 INTERNAL_SDC_0.OSC_PGATE_1.OSC_0.x1_out INTERNAL_SDC_0.OSC_PGATE_1.OSC_0.N1 VSS VSS sky130_fd_pr__nfet_01v8 ad=0.08775 pd=0.92 as=0.169 ps=1.82 w=0.65 l=0.15
X88 N3_S INTERNAL_SDC_0.OSC_PGATE_0.OSC_0.INVandCAP_0[3].VOUT VDD VDD sky130_fd_pr__pfet_01v8_hvt ad=0.135 pd=1.27 as=0.26 ps=2.52 w=1 l=0.15
X89 N2_R INTERNAL_SDC_0.OSC_PGATE_1.OSC_0.BUFFMIN_0.sky130_fd_sc_hd__inv_1_0.Y VSS VSS sky130_fd_pr__nfet_01v8 ad=0.08775 pd=0.92 as=0.169 ps=1.82 w=0.65 l=0.15
X90 VDD VDD VDD sky130_fd_pr__res_iso_pw w=20 l=30.5
X91 VSS INTERNAL_SDC_0.OSC_PGATE_1.OSC_0.INVandCAP_0[3].VOUT N3_R VSS sky130_fd_pr__nfet_01v8 ad=0.169 pd=1.82 as=0.08775 ps=0.92 w=0.65 l=0.15
X92 INTERNAL_SDC_0.DFF_0.ND a_n10642_n4576# a_n10312_n4576# VSS sky130_fd_pr__nfet_01v8 ad=0.29 pd=2.58 as=0.29 ps=2.58 w=1 l=0.15
X93 INTERNAL_SDC_0.OSC_PGATE_1.OSC_0.x1_out INTERNAL_SDC_0.OSC_PGATE_1.OSC_0.N1 VDD VDD sky130_fd_pr__pfet_01v8_hvt ad=0.135 pd=1.27 as=0.26 ps=2.52 w=1 l=0.15
X94 VDD INTERNAL_SDC_0.OSC_PGATE_1.OSC_0.BUFFMIN_0.sky130_fd_sc_hd__inv_1_0.Y N2_R VDD sky130_fd_pr__pfet_01v8_hvt ad=0.26 pd=2.52 as=0.135 ps=1.27 w=1 l=0.15
X95 INTERNAL_SDC_0.OSC_PGATE_1.VIN INTERNAL_SDC_0.OSC_PGATE_1.PASSGATE_0.sky130_fd_sc_hd__inv_1$1_0.Y REF_IN VDD sky130_fd_pr__pfet_01v8 ad=0.165 pd=1.33 as=0.165 ps=1.33 w=1 l=0.15
X96 INTERNAL_SDC_0.OSC_PGATE_1.OSC_0.INVandCAP_0[3].VOUT VSS sky130_fd_pr__cap_mim_m3_1 l=10 w=10
X97 N3_R INTERNAL_SDC_0.OSC_PGATE_1.OSC_0.INVandCAP_0[3].VOUT VDD VDD sky130_fd_pr__pfet_01v8_hvt ad=0.135 pd=1.27 as=0.26 ps=2.52 w=1 l=0.15
X98 VDD INTERNAL_SDC_0.OSC_PGATE_0.OSC_0.N1 INTERNAL_SDC_0.OSC_PGATE_0.OSC_0.x1_out VDD sky130_fd_pr__pfet_01v8_hvt ad=0.26 pd=2.52 as=0.135 ps=1.27 w=1 l=0.15
X99 VDD INTERNAL_SDC_0.OSC_PGATE_1.OSC_0.N1 INTERNAL_SDC_0.OSC_PGATE_1.OSC_0.x1_out VDD sky130_fd_pr__pfet_01v8_hvt ad=0.26 pd=2.52 as=0.135 ps=1.27 w=1 l=0.15
X100 VDD INTERNAL_SDC_0.OSC_PGATE_0.OSC_0.N1 INTERNAL_SDC_0.OSC_PGATE_0.OSC_0.x1_out VDD sky130_fd_pr__pfet_01v8_hvt ad=0.26 pd=2.52 as=0.135 ps=1.27 w=1 l=0.15
X101 N3_S INTERNAL_SDC_0.OSC_PGATE_0.OSC_0.INVandCAP_0[3].VOUT VSS VSS sky130_fd_pr__nfet_01v8 ad=0.08775 pd=0.92 as=0.169 ps=1.82 w=0.65 l=0.15
X102 a_n10739_n4824# INTERNAL_SDC_0.N2_S VSS VSS sky130_fd_pr__nfet_01v8 ad=0.29 pd=2.58 as=0.29 ps=2.58 w=1 l=0.15
X103 DOUT INTERNAL_SDC_0.DFF_0.ND VDD VDD sky130_fd_pr__pfet_01v8 ad=0.29 pd=2.58 as=0.29 ps=2.58 w=1 l=0.15
X104 INTERNAL_SDC_0.OSC_PGATE_1.OSC_0.INVandCAP_0[3].VOUT INTERNAL_SDC_0.OSC_PGATE_1.OSC_0.x2_out VSS VSS sky130_fd_pr__nfet_01v8 ad=0.08775 pd=0.92 as=0.169 ps=1.82 w=0.65 l=0.15
X105 VSS INTERNAL_SDC_0.OSC_PGATE_1.OSC_0.INVandCAP_0[3].VOUT N3_R VSS sky130_fd_pr__nfet_01v8 ad=0.169 pd=1.82 as=0.08775 ps=0.92 w=0.65 l=0.15
X106 VSS INTERNAL_SDC_0.OSC_PGATE_0.OSC_0.x2_out INTERNAL_SDC_0.OSC_PGATE_0.OSC_0.INVandCAP_0[3].VOUT VSS sky130_fd_pr__nfet_01v8 ad=0.169 pd=1.82 as=0.08775 ps=0.92 w=0.65 l=0.15
X107 VSS VSS VSS sky130_fd_pr__res_high_po_5p73 l=8
X108 INTERNAL_SDC_0.OSC_PGATE_0.OSC_0.x2_out INTERNAL_SDC_0.OSC_PGATE_0.OSC_0.x1_out VSS VSS sky130_fd_pr__nfet_01v8 ad=0.08775 pd=0.92 as=0.169 ps=1.82 w=0.65 l=0.15
X109 VSS INTERNAL_SDC_0.OSC_PGATE_0.OSC_0.x1_out INTERNAL_SDC_0.OSC_PGATE_0.OSC_0.x2_out VSS sky130_fd_pr__nfet_01v8 ad=0.169 pd=1.82 as=0.08775 ps=0.92 w=0.65 l=0.15
X110 VSS INTERNAL_SDC_0.OSC_PGATE_0.OSC_0.x2_out INTERNAL_SDC_0.OSC_PGATE_0.OSC_0.INVandCAP_0[3].VOUT VSS sky130_fd_pr__nfet_01v8 ad=0.169 pd=1.82 as=0.08775 ps=0.92 w=0.65 l=0.15
X111 INTERNAL_SDC_0.OSC_PGATE_0.OSC_0.N1 VSS sky130_fd_pr__cap_mim_m3_2 l=10 w=10
X112 INTERNAL_SDC_0.OSC_PGATE_0.VIN INTERNAL_SDC_0.OSC_PGATE_0.PASSGATE_0.sky130_fd_sc_hd__inv_1$1_0.Y SENS_IN VDD sky130_fd_pr__pfet_01v8 ad=0.31 pd=2.62 as=0.165 ps=1.33 w=1 l=0.15
X113 INTERNAL_SDC_0.OSC_PGATE_1.VIN VDD REF_IN VSS sky130_fd_pr__nfet_01v8 ad=0.31 pd=2.62 as=0.165 ps=1.33 w=1 l=0.15
X114 INTERNAL_SDC_0.OSC_PGATE_1.OSC_0.x2_out INTERNAL_SDC_0.OSC_PGATE_1.OSC_0.x1_out VDD VDD sky130_fd_pr__pfet_01v8_hvt ad=0.135 pd=1.27 as=0.26 ps=2.52 w=1 l=0.15
X115 INTERNAL_SDC_0.OSC_PGATE_1.OSC_0.x2_out VSS sky130_fd_pr__cap_mim_m3_2 l=10 w=10
X116 INTERNAL_SDC_0.OSC_PGATE_1.OSC_0.INVandCAP_0[3].VOUT INTERNAL_SDC_0.OSC_PGATE_1.OSC_0.x2_out VDD VDD sky130_fd_pr__pfet_01v8_hvt ad=0.135 pd=1.27 as=0.26 ps=2.52 w=1 l=0.15
X117 VSS SENS_IN INTERNAL_SDC_0.OSC_PGATE_0.OSC_0.N1 VSS sky130_fd_pr__nfet_01v8 ad=0.169 pd=1.82 as=0.08775 ps=0.92 w=0.65 l=0.15
X118 VSS INTERNAL_SDC_0.OSC_PGATE_0.OSC_0.INVandCAP_0[3].VOUT N3_S VSS sky130_fd_pr__nfet_01v8 ad=0.169 pd=1.82 as=0.08775 ps=0.92 w=0.65 l=0.15
X119 VDD VDD VDD sky130_fd_pr__res_iso_pw w=20 l=30.5
X120 VSS SENS_IN INTERNAL_SDC_0.OSC_PGATE_0.OSC_0.N1 VSS sky130_fd_pr__nfet_01v8 ad=0.169 pd=1.82 as=0.08775 ps=0.92 w=0.65 l=0.15
X121 INTERNAL_SDC_0.N2_S INTERNAL_SDC_0.OSC_PGATE_0.OSC_0.BUFFMIN_0.sky130_fd_sc_hd__inv_1_0.Y VSS VSS sky130_fd_pr__nfet_01v8 ad=0.08775 pd=0.92 as=0.169 ps=1.82 w=0.65 l=0.15
X122 INTERNAL_SDC_0.OSC_PGATE_1.OSC_0.N1 REF_IN VSS VSS sky130_fd_pr__nfet_01v8 ad=0.08775 pd=0.92 as=0.169 ps=1.82 w=0.65 l=0.15
X123 INTERNAL_SDC_0.OSC_PGATE_1.OSC_0.x1_out INTERNAL_SDC_0.OSC_PGATE_1.OSC_0.N1 VDD VDD sky130_fd_pr__pfet_01v8_hvt ad=0.135 pd=1.27 as=0.26 ps=2.52 w=1 l=0.15
X124 INTERNAL_SDC_0.OSC_PGATE_1.OSC_0.INVandCAP_0[3].VOUT INTERNAL_SDC_0.OSC_PGATE_1.OSC_0.x2_out VSS VSS sky130_fd_pr__nfet_01v8 ad=0.08775 pd=0.92 as=0.169 ps=1.82 w=0.65 l=0.15
X125 VDD VDD VDD sky130_fd_pr__res_iso_pw w=20 l=30.5
X126 INTERNAL_SDC_0.OSC_PGATE_0.OSC_0.INVandCAP_0[3].VOUT INTERNAL_SDC_0.OSC_PGATE_0.OSC_0.x2_out VDD VDD sky130_fd_pr__pfet_01v8_hvt ad=0.135 pd=1.27 as=0.26 ps=2.52 w=1 l=0.15
X127 VSS REF_IN INTERNAL_SDC_0.OSC_PGATE_1.OSC_0.N1 VSS sky130_fd_pr__nfet_01v8 ad=0.169 pd=1.82 as=0.08775 ps=0.92 w=0.65 l=0.15
X128 VSS INTERNAL_SDC_0.OSC_PGATE_1.OSC_0.x1_out INTERNAL_SDC_0.OSC_PGATE_1.OSC_0.x2_out VSS sky130_fd_pr__nfet_01v8 ad=0.169 pd=1.82 as=0.08775 ps=0.92 w=0.65 l=0.15
X129 INTERNAL_SDC_0.OSC_PGATE_0.OSC_0.N1 VSS sky130_fd_pr__cap_mim_m3_1 l=10 w=10
X130 VSS SENS_IN INTERNAL_SDC_0.OSC_PGATE_0.OSC_0.N1 VSS sky130_fd_pr__nfet_01v8 ad=0.169 pd=1.82 as=0.08775 ps=0.92 w=0.65 l=0.15
X131 VSS INTERNAL_SDC_0.OSC_PGATE_1.OSC_0.x1_out INTERNAL_SDC_0.OSC_PGATE_1.OSC_0.x2_out VSS sky130_fd_pr__nfet_01v8 ad=0.169 pd=1.82 as=0.08775 ps=0.92 w=0.65 l=0.15
X132 INTERNAL_SDC_0.OSC_PGATE_1.VIN VSS sky130_fd_pr__cap_mim_m3_2 l=10 w=10
X133 VDD INTERNAL_SDC_0.OSC_PGATE_1.OSC_0.INVandCAP_0[3].VOUT N3_R VDD sky130_fd_pr__pfet_01v8_hvt ad=0.26 pd=2.52 as=0.135 ps=1.27 w=1 l=0.15
X134 N3_S INTERNAL_SDC_0.OSC_PGATE_0.OSC_0.INVandCAP_0[3].VOUT VDD VDD sky130_fd_pr__pfet_01v8_hvt ad=0.135 pd=1.27 as=0.26 ps=2.52 w=1 l=0.15
X135 VDD INTERNAL_SDC_0.OSC_PGATE_1.OSC_0.N1 INTERNAL_SDC_0.OSC_PGATE_1.OSC_0.x1_out VDD sky130_fd_pr__pfet_01v8_hvt ad=0.26 pd=2.52 as=0.135 ps=1.27 w=1 l=0.15
X136 VDD INTERNAL_SDC_0.OSC_PGATE_1.OSC_0.INVandCAP_0[3].VOUT N3_R VDD sky130_fd_pr__pfet_01v8_hvt ad=0.26 pd=2.52 as=0.135 ps=1.27 w=1 l=0.15
X137 VDD INTERNAL_SDC_0.OSC_PGATE_1.OSC_0.x1_out INTERNAL_SDC_0.OSC_PGATE_1.OSC_0.x2_out VDD sky130_fd_pr__pfet_01v8_hvt ad=0.26 pd=2.52 as=0.135 ps=1.27 w=1 l=0.15
X138 N3_S INTERNAL_SDC_0.OSC_PGATE_0.OSC_0.INVandCAP_0[3].VOUT VDD VDD sky130_fd_pr__pfet_01v8_hvt ad=0.135 pd=1.27 as=0.26 ps=2.52 w=1 l=0.15
X139 INTERNAL_SDC_0.OSC_PGATE_1.OSC_0.x2_out INTERNAL_SDC_0.OSC_PGATE_1.OSC_0.x1_out VSS VSS sky130_fd_pr__nfet_01v8 ad=0.08775 pd=0.92 as=0.169 ps=1.82 w=0.65 l=0.15
X140 INTERNAL_SDC_0.OSC_PGATE_0.OSC_0.INVandCAP_0[3].VOUT INTERNAL_SDC_0.OSC_PGATE_0.OSC_0.x2_out VDD VDD sky130_fd_pr__pfet_01v8_hvt ad=0.135 pd=1.27 as=0.26 ps=2.52 w=1 l=0.15
X141 REF_IN VSS sky130_fd_pr__cap_mim_m3_2 l=10 w=10
X142 VDD VDD VDD sky130_fd_pr__res_iso_pw w=20 l=30.5
X143 INTERNAL_SDC_0.OSC_PGATE_0.OSC_0.x1_out INTERNAL_SDC_0.OSC_PGATE_0.OSC_0.N1 VDD VDD sky130_fd_pr__pfet_01v8_hvt ad=0.135 pd=1.27 as=0.26 ps=2.52 w=1 l=0.15
X144 INTERNAL_SDC_0.OSC_PGATE_0.OSC_0.x2_out INTERNAL_SDC_0.OSC_PGATE_0.OSC_0.x1_out VDD VDD sky130_fd_pr__pfet_01v8_hvt ad=0.135 pd=1.27 as=0.26 ps=2.52 w=1 l=0.15
X145 VDD SENS_IN INTERNAL_SDC_0.OSC_PGATE_0.OSC_0.N1 VDD sky130_fd_pr__pfet_01v8_hvt ad=0.26 pd=2.52 as=0.135 ps=1.27 w=1 l=0.15
X146 INTERNAL_SDC_0.OSC_PGATE_1.OSC_0.x1_out INTERNAL_SDC_0.OSC_PGATE_1.OSC_0.N1 VSS VSS sky130_fd_pr__nfet_01v8 ad=0.08775 pd=0.92 as=0.169 ps=1.82 w=0.65 l=0.15
X147 INTERNAL_SDC_0.OSC_PGATE_0.OSC_0.N1 SENS_IN VDD VDD sky130_fd_pr__pfet_01v8_hvt ad=0.135 pd=1.27 as=0.26 ps=2.52 w=1 l=0.15
X148 SENS_IN INTERNAL_SDC_0.OSC_PGATE_0.PASSGATE_0.sky130_fd_sc_hd__inv_1$1_0.Y INTERNAL_SDC_0.OSC_PGATE_0.VIN VDD sky130_fd_pr__pfet_01v8 ad=0.165 pd=1.33 as=0.165 ps=1.33 w=1 l=0.15
X149 INTERNAL_SDC_0.OSC_PGATE_1.OSC_0.INVandCAP_0[3].VOUT INTERNAL_SDC_0.OSC_PGATE_1.OSC_0.x2_out VDD VDD sky130_fd_pr__pfet_01v8_hvt ad=0.135 pd=1.27 as=0.26 ps=2.52 w=1 l=0.15
X150 VDD INTERNAL_SDC_0.OSC_PGATE_0.OSC_0.BUFFMIN_0.sky130_fd_sc_hd__inv_1_0.Y INTERNAL_SDC_0.N2_S VDD sky130_fd_pr__pfet_01v8_hvt ad=0.26 pd=2.52 as=0.135 ps=1.27 w=1 l=0.15
X151 VDD REF_IN INTERNAL_SDC_0.OSC_PGATE_1.OSC_0.N1 VDD sky130_fd_pr__pfet_01v8_hvt ad=0.26 pd=2.52 as=0.135 ps=1.27 w=1 l=0.15
X152 INTERNAL_SDC_0.OSC_PGATE_0.OSC_0.INVandCAP_0[3].VOUT INTERNAL_SDC_0.OSC_PGATE_0.OSC_0.x2_out VSS VSS sky130_fd_pr__nfet_01v8 ad=0.08775 pd=0.92 as=0.169 ps=1.82 w=0.65 l=0.15
X153 VDD INTERNAL_SDC_0.OSC_PGATE_1.OSC_0.x1_out INTERNAL_SDC_0.OSC_PGATE_1.OSC_0.x2_out VDD sky130_fd_pr__pfet_01v8_hvt ad=0.26 pd=2.52 as=0.135 ps=1.27 w=1 l=0.15
X154 VDD INTERNAL_SDC_0.OSC_PGATE_1.OSC_0.x2_out INTERNAL_SDC_0.OSC_PGATE_1.OSC_0.INVandCAP_0[3].VOUT VDD sky130_fd_pr__pfet_01v8_hvt ad=0.26 pd=2.52 as=0.135 ps=1.27 w=1 l=0.15
X155 SENS_IN N3_S VDD sky130_fd_pr__res_iso_pw w=20 l=30.5
X156 INTERNAL_SDC_0.OSC_PGATE_0.OSC_0.x1_out INTERNAL_SDC_0.OSC_PGATE_0.OSC_0.N1 VSS VSS sky130_fd_pr__nfet_01v8 ad=0.08775 pd=0.92 as=0.169 ps=1.82 w=0.65 l=0.15
X157 VSS REF_IN INTERNAL_SDC_0.OSC_PGATE_1.OSC_0.N1 VSS sky130_fd_pr__nfet_01v8 ad=0.169 pd=1.82 as=0.08775 ps=0.92 w=0.65 l=0.15
X158 N3_R INTERNAL_SDC_0.OSC_PGATE_1.OSC_0.INVandCAP_0[3].VOUT VSS VSS sky130_fd_pr__nfet_01v8 ad=0.08775 pd=0.92 as=0.169 ps=1.82 w=0.65 l=0.15
X159 VSS INTERNAL_SDC_0.OSC_PGATE_0.OSC_0.x2_out INTERNAL_SDC_0.OSC_PGATE_0.OSC_0.INVandCAP_0[3].VOUT VSS sky130_fd_pr__nfet_01v8 ad=0.169 pd=1.82 as=0.08775 ps=0.92 w=0.65 l=0.15
X160 a_n10642_n4576# N2_R a_n10642_n4776# VDD sky130_fd_pr__pfet_01v8 ad=0.29 pd=2.58 as=0.29 ps=2.58 w=1 l=0.15
X161 N2_R INTERNAL_SDC_0.OSC_PGATE_1.OSC_0.BUFFMIN_0.sky130_fd_sc_hd__inv_1_0.Y VDD VDD sky130_fd_pr__pfet_01v8_hvt ad=0.135 pd=1.27 as=0.26 ps=2.52 w=1 l=0.15
X162 VSS INTERNAL_SDC_0.OSC_PGATE_0.OSC_0.x1_out INTERNAL_SDC_0.OSC_PGATE_0.OSC_0.x2_out VSS sky130_fd_pr__nfet_01v8 ad=0.169 pd=1.82 as=0.08775 ps=0.92 w=0.65 l=0.15
X163 INTERNAL_SDC_0.OSC_PGATE_1.OSC_0.x2_out INTERNAL_SDC_0.OSC_PGATE_1.OSC_0.x1_out VSS VSS sky130_fd_pr__nfet_01v8 ad=0.08775 pd=0.92 as=0.169 ps=1.82 w=0.65 l=0.15
X164 VSS SENS_IN INTERNAL_SDC_0.OSC_PGATE_0.OSC_0.N1 VSS sky130_fd_pr__nfet_01v8 ad=0.169 pd=1.82 as=0.08775 ps=0.92 w=0.65 l=0.15
X165 INTERNAL_SDC_0.OSC_PGATE_0.OSC_0.x2_out VSS sky130_fd_pr__cap_mim_m3_1 l=10 w=10
X166 VDD VDD VDD sky130_fd_pr__res_iso_pw w=20 l=30.5
X167 VDD INTERNAL_SDC_0.OSC_PGATE_1.OSC_0.x1_out INTERNAL_SDC_0.OSC_PGATE_1.OSC_0.x2_out VDD sky130_fd_pr__pfet_01v8_hvt ad=0.26 pd=2.52 as=0.135 ps=1.27 w=1 l=0.15
X168 a_n10642_n3576# N2_R a_n10739_n4824# VDD sky130_fd_pr__pfet_01v8 ad=0.29 pd=2.58 as=0.29 ps=2.58 w=1 l=0.15
X169 INTERNAL_SDC_0.OSC_PGATE_1.OSC_0.x1_out INTERNAL_SDC_0.OSC_PGATE_1.OSC_0.N1 VSS VSS sky130_fd_pr__nfet_01v8 ad=0.08775 pd=0.92 as=0.169 ps=1.82 w=0.65 l=0.15
X170 INTERNAL_SDC_0.OSC_PGATE_1.OSC_0.N1 VSS sky130_fd_pr__cap_mim_m3_1 l=10 w=10
X171 VDD INTERNAL_SDC_0.OSC_PGATE_1.OSC_0.x2_out INTERNAL_SDC_0.OSC_PGATE_1.OSC_0.INVandCAP_0[3].VOUT VDD sky130_fd_pr__pfet_01v8_hvt ad=0.26 pd=2.52 as=0.135 ps=1.27 w=1 l=0.15
X172 N3_R INTERNAL_SDC_0.OSC_PGATE_1.OSC_0.INVandCAP_0[3].VOUT VSS VSS sky130_fd_pr__nfet_01v8 ad=0.08775 pd=0.92 as=0.169 ps=1.82 w=0.65 l=0.15
X173 VDD VDD VDD sky130_fd_pr__res_iso_pw w=20 l=30.5
X174 INTERNAL_SDC_0.OSC_PGATE_0.OSC_0.x2_out INTERNAL_SDC_0.OSC_PGATE_0.OSC_0.x1_out VDD VDD sky130_fd_pr__pfet_01v8_hvt ad=0.135 pd=1.27 as=0.26 ps=2.52 w=1 l=0.15
X175 INTERNAL_SDC_0.OSC_PGATE_0.OSC_0.INVandCAP_0[3].VOUT INTERNAL_SDC_0.OSC_PGATE_0.OSC_0.x2_out VDD VDD sky130_fd_pr__pfet_01v8_hvt ad=0.135 pd=1.27 as=0.26 ps=2.52 w=1 l=0.15
X176 DOUT INTERNAL_SDC_0.DFF_0.ND VSS VSS sky130_fd_pr__nfet_01v8 ad=0.29 pd=2.58 as=0.29 ps=2.58 w=1 l=0.15
X177 VSS INTERNAL_SDC_0.OSC_PGATE_1.OSC_0.N1 INTERNAL_SDC_0.OSC_PGATE_1.OSC_0.x1_out VSS sky130_fd_pr__nfet_01v8 ad=0.169 pd=1.82 as=0.08775 ps=0.92 w=0.65 l=0.15
X178 REF_IN VSS sky130_fd_pr__cap_mim_m3_1 l=10 w=10
X179 INTERNAL_SDC_0.OSC_PGATE_1.OSC_0.INVandCAP_0[3].VOUT INTERNAL_SDC_0.OSC_PGATE_1.OSC_0.x2_out VDD VDD sky130_fd_pr__pfet_01v8_hvt ad=0.135 pd=1.27 as=0.26 ps=2.52 w=1 l=0.15
X180 INTERNAL_SDC_0.OSC_PGATE_0.OSC_0.x2_out INTERNAL_SDC_0.OSC_PGATE_0.OSC_0.x1_out VDD VDD sky130_fd_pr__pfet_01v8_hvt ad=0.135 pd=1.27 as=0.26 ps=2.52 w=1 l=0.15
X181 INTERNAL_SDC_0.OSC_PGATE_0.OSC_0.INVandCAP_0[3].VOUT INTERNAL_SDC_0.OSC_PGATE_0.OSC_0.x2_out VDD VDD sky130_fd_pr__pfet_01v8_hvt ad=0.135 pd=1.27 as=0.26 ps=2.52 w=1 l=0.15
X182 INTERNAL_SDC_0.OSC_PGATE_0.OSC_0.N1 SENS_IN VDD VDD sky130_fd_pr__pfet_01v8_hvt ad=0.135 pd=1.27 as=0.26 ps=2.52 w=1 l=0.15
X183 INTERNAL_SDC_0.OSC_PGATE_0.OSC_0.x1_out INTERNAL_SDC_0.OSC_PGATE_0.OSC_0.N1 VDD VDD sky130_fd_pr__pfet_01v8_hvt ad=0.135 pd=1.27 as=0.26 ps=2.52 w=1 l=0.15
X184 INTERNAL_SDC_0.OSC_PGATE_0.OSC_0.x2_out INTERNAL_SDC_0.OSC_PGATE_0.OSC_0.x1_out VDD VDD sky130_fd_pr__pfet_01v8_hvt ad=0.135 pd=1.27 as=0.26 ps=2.52 w=1 l=0.15
X185 VDD INTERNAL_SDC_0.OSC_PGATE_1.OSC_0.x1_out INTERNAL_SDC_0.OSC_PGATE_1.OSC_0.x2_out VDD sky130_fd_pr__pfet_01v8_hvt ad=0.26 pd=2.52 as=0.135 ps=1.27 w=1 l=0.15
X186 INTERNAL_SDC_0.OSC_PGATE_0.OSC_0.BUFFMIN_0.sky130_fd_sc_hd__inv_1_0.Y INTERNAL_SDC_0.OSC_PGATE_0.OSC_0.INVandCAP_0[3].VOUT VSS VSS sky130_fd_pr__nfet_01v8 ad=0.169 pd=1.82 as=0.169 ps=1.82 w=0.65 l=0.15
X187 INTERNAL_SDC_0.OSC_PGATE_0.OSC_0.x1_out INTERNAL_SDC_0.OSC_PGATE_0.OSC_0.N1 VDD VDD sky130_fd_pr__pfet_01v8_hvt ad=0.135 pd=1.27 as=0.26 ps=2.52 w=1 l=0.15
X188 SENS_IN N3_S VDD sky130_fd_pr__res_iso_pw w=20 l=30.5
X189 N3_S INTERNAL_SDC_0.OSC_PGATE_0.OSC_0.INVandCAP_0[3].VOUT VSS VSS sky130_fd_pr__nfet_01v8 ad=0.08775 pd=0.92 as=0.169 ps=1.82 w=0.65 l=0.15
X190 VDD INTERNAL_SDC_0.OSC_PGATE_0.OSC_0.INVandCAP_0[3].VOUT N3_S VDD sky130_fd_pr__pfet_01v8_hvt ad=0.26 pd=2.52 as=0.135 ps=1.27 w=1 l=0.15
X191 N3_S INTERNAL_SDC_0.OSC_PGATE_0.OSC_0.INVandCAP_0[3].VOUT VSS VSS sky130_fd_pr__nfet_01v8 ad=0.08775 pd=0.92 as=0.169 ps=1.82 w=0.65 l=0.15
X192 VDD INTERNAL_SDC_0.OSC_PGATE_1.OSC_0.N1 INTERNAL_SDC_0.OSC_PGATE_1.OSC_0.x1_out VDD sky130_fd_pr__pfet_01v8_hvt ad=0.26 pd=2.52 as=0.135 ps=1.27 w=1 l=0.15
X193 SENS_IN N3_S VDD sky130_fd_pr__res_iso_pw w=20 l=30.5
X194 INTERNAL_SDC_0.OSC_PGATE_1.OSC_0.x2_out INTERNAL_SDC_0.OSC_PGATE_1.OSC_0.x1_out VSS VSS sky130_fd_pr__nfet_01v8 ad=0.08775 pd=0.92 as=0.169 ps=1.82 w=0.65 l=0.15
X195 INTERNAL_SDC_0.OSC_PGATE_0.OSC_0.x2_out VSS sky130_fd_pr__cap_mim_m3_1 l=10 w=10
X196 INTERNAL_SDC_0.OSC_PGATE_1.OSC_0.INVandCAP_0[3].VOUT INTERNAL_SDC_0.OSC_PGATE_1.OSC_0.x2_out VSS VSS sky130_fd_pr__nfet_01v8 ad=0.08775 pd=0.92 as=0.169 ps=1.82 w=0.65 l=0.15
X197 INTERNAL_SDC_0.OSC_PGATE_1.VIN VSS sky130_fd_pr__cap_mim_m3_1 l=10 w=10
X198 INTERNAL_SDC_0.OSC_PGATE_1.OSC_0.N1 VSS sky130_fd_pr__cap_mim_m3_1 l=10 w=10
X199 N3_R INTERNAL_SDC_0.OSC_PGATE_1.OSC_0.INVandCAP_0[3].VOUT VDD VDD sky130_fd_pr__pfet_01v8_hvt ad=0.135 pd=1.27 as=0.26 ps=2.52 w=1 l=0.15
X200 REF_IN N3_R VSS sky130_fd_pr__res_high_po_5p73 l=8
X201 INTERNAL_SDC_0.OSC_PGATE_1.OSC_0.x1_out INTERNAL_SDC_0.OSC_PGATE_1.OSC_0.N1 VDD VDD sky130_fd_pr__pfet_01v8_hvt ad=0.135 pd=1.27 as=0.26 ps=2.52 w=1 l=0.15
X202 INTERNAL_SDC_0.OSC_PGATE_0.OSC_0.N1 VSS sky130_fd_pr__cap_mim_m3_2 l=10 w=10
X203 INTERNAL_SDC_0.OSC_PGATE_0.OSC_0.INVandCAP_0[3].VOUT VSS sky130_fd_pr__cap_mim_m3_1 l=10 w=10
X204 INTERNAL_SDC_0.OSC_PGATE_0.OSC_0.x1_out VSS sky130_fd_pr__cap_mim_m3_1 l=10 w=10
X205 VSS INTERNAL_SDC_0.OSC_PGATE_0.OSC_0.N1 INTERNAL_SDC_0.OSC_PGATE_0.OSC_0.x1_out VSS sky130_fd_pr__nfet_01v8 ad=0.169 pd=1.82 as=0.08775 ps=0.92 w=0.65 l=0.15
X206 INTERNAL_SDC_0.OSC_PGATE_1.OSC_0.x2_out INTERNAL_SDC_0.OSC_PGATE_1.OSC_0.x1_out VSS VSS sky130_fd_pr__nfet_01v8 ad=0.08775 pd=0.92 as=0.169 ps=1.82 w=0.65 l=0.15
X207 VDD INTERNAL_SDC_0.OSC_PGATE_1.OSC_0.INVandCAP_0[3].VOUT N3_R VDD sky130_fd_pr__pfet_01v8_hvt ad=0.26 pd=2.52 as=0.135 ps=1.27 w=1 l=0.15
X208 VSS INTERNAL_SDC_0.OSC_PGATE_0.OSC_0.N1 INTERNAL_SDC_0.OSC_PGATE_0.OSC_0.x1_out VSS sky130_fd_pr__nfet_01v8 ad=0.169 pd=1.82 as=0.08775 ps=0.92 w=0.65 l=0.15
X209 INTERNAL_SDC_0.OSC_PGATE_1.OSC_0.N1 VSS sky130_fd_pr__cap_mim_m3_1 l=10 w=10
X210 VSS INTERNAL_SDC_0.OSC_PGATE_1.OSC_0.N1 INTERNAL_SDC_0.OSC_PGATE_1.OSC_0.x1_out VSS sky130_fd_pr__nfet_01v8 ad=0.169 pd=1.82 as=0.08775 ps=0.92 w=0.65 l=0.15
X211 INTERNAL_SDC_0.OSC_PGATE_0.OSC_0.INVandCAP_0[3].VOUT INTERNAL_SDC_0.OSC_PGATE_0.OSC_0.x2_out VDD VDD sky130_fd_pr__pfet_01v8_hvt ad=0.135 pd=1.27 as=0.26 ps=2.52 w=1 l=0.15
X212 N3_S INTERNAL_SDC_0.OSC_PGATE_0.OSC_0.INVandCAP_0[3].VOUT VDD VDD sky130_fd_pr__pfet_01v8_hvt ad=0.135 pd=1.27 as=0.26 ps=2.52 w=1 l=0.15
X213 INTERNAL_SDC_0.OSC_PGATE_0.OSC_0.x1_out INTERNAL_SDC_0.OSC_PGATE_0.OSC_0.N1 VDD VDD sky130_fd_pr__pfet_01v8_hvt ad=0.135 pd=1.27 as=0.26 ps=2.52 w=1 l=0.15