* NGSPICE file created from ONES_COUNTER_pex.ext - technology: sky130A

.subckt ONES_COUNTER_pex VGND VPWR clk rst pulse ready ones[0] ones[1] ones[2] ones[3] ones[4] ones[5]
+ ones[6] ones[7] ones[8] ones[9] ones[10]
X0 a_2957_2999# counter\[9\] VGND VGND sky130_fd_pr__nfet_01v8 ad=0.0567 pd=0.69 as=0.1 ps=0.985 w=0.42 l=0.15
X1 a_1832_6825# counter\[8\] VPWR VPWR sky130_fd_pr__pfet_01v8_hvt ad=0.0441 pd=0.63 as=0.146 ps=1.33 w=0.42 l=0.15
X2 VPWR _033_ a_8352_9527# VPWR sky130_fd_pr__pfet_01v8_hvt ad=0.109 pd=1.36 as=0.109 ps=1.36 w=0.42 l=0.15
X3 a_9183_8573# a_8963_8585# VGND VGND sky130_fd_pr__nfet_01v8 ad=0.0696 pd=0.765 as=0.121 ps=1.08 w=0.42 l=0.15
X4 VPWR VGND VPWR VPWR sky130_fd_pr__pfet_01v8_hvt ad=0.226 pd=2.26 as=135 ps=1.29k w=0.87 l=0.59
X5 VPWR net14 a_9810_6147# VPWR sky130_fd_pr__pfet_01v8_hvt ad=0.146 pd=1.33 as=0.0441 ps=0.63 w=0.42 l=0.15
X6 a_3368_6351# _087_ a_3277_6351# VGND sky130_fd_pr__nfet_01v8 ad=0.0877 pd=0.92 as=0.0991 ps=0.955 w=0.65 l=0.15
X7 a_6546_5487# net8 a_6377_5737# VPWR sky130_fd_pr__pfet_01v8_hvt ad=0.26 pd=2.52 as=0.138 ps=1.27 w=1 l=0.15
X8 VGND a_5383_2741# a_5341_3145# VGND sky130_fd_pr__nfet_01v8 ad=0.109 pd=1.36 as=0.066 ps=0.745 w=0.42 l=0.15
X9 a_9305_10927# _019_ VPWR VPWR sky130_fd_pr__pfet_01v8_hvt ad=0.0578 pd=0.695 as=0.109 ps=1.36 w=0.42 l=0.15
X10 a_6701_6369# net10 VGND VGND sky130_fd_pr__nfet_01v8 ad=0.0567 pd=0.69 as=0.112 ps=1.04 w=0.42 l=0.15
X11 a_2879_9839# net5 a_2773_9839# VGND sky130_fd_pr__nfet_01v8 ad=0.0693 pd=0.75 as=0.0798 ps=0.8 w=0.42 l=0.15
X12 VGND a_1669_6727# _083_ VGND sky130_fd_pr__nfet_01v8 ad=0.1 pd=0.985 as=0.169 ps=1.82 w=0.65 l=0.15
X13 a_8942_5220# a_8735_5161# a_9118_4943# VPWR sky130_fd_pr__pfet_01v8_hvt ad=0.0682 pd=0.745 as=0.0766 ps=0.785 w=0.42 l=0.15
X14 VGND clknet_1_1__leaf_clk a_8951_10927# VGND sky130_fd_pr__nfet_01v8 ad=0.0567 pd=0.69 as=0.109 ps=1.36 w=0.42 l=0.15
X15 a_9919_8439# _060_ VPWR VPWR sky130_fd_pr__pfet_01v8_hvt ad=0.109 pd=1.36 as=0.0567 ps=0.69 w=0.42 l=0.15
X16 _059_ net2 VGND VGND sky130_fd_pr__nfet_01v8 ad=0.0877 pd=0.92 as=0.169 ps=1.82 w=0.65 l=0.15
X17 VPWR _031_ a_2877_4649# VPWR sky130_fd_pr__pfet_01v8_hvt ad=0.148 pd=1.34 as=0.0441 ps=0.63 w=0.42 l=0.15
X18 clknet_1_1__leaf_clk a_8022_7119# VGND VGND sky130_fd_pr__nfet_01v8 ad=0.0588 pd=0.7 as=0.0588 ps=0.7 w=0.42 l=0.15
X19 VGND a_9558_11039# a_9516_10927# VGND sky130_fd_pr__nfet_01v8 ad=0.121 pd=1.08 as=0.0696 ps=0.765 w=0.42 l=0.15
X20 _030_ a_2736_5059# VGND VGND sky130_fd_pr__nfet_01v8 ad=0.169 pd=1.82 as=0.1 ps=0.985 w=0.65 l=0.15
X21 ones[10] a_8307_10383# VPWR VPWR sky130_fd_pr__pfet_01v8_hvt ad=0.205 pd=2.1 as=0.115 ps=1.08 w=0.79 l=0.15
X22 a_2691_6825# _043_ VPWR VPWR sky130_fd_pr__pfet_01v8_hvt ad=0.265 pd=2.53 as=0.14 ps=1.28 w=1 l=0.15
X23 VGND a_3330_7396# a_3259_7497# VGND sky130_fd_pr__nfet_01v8 ad=0.121 pd=1.08 as=0.0989 ps=0.995 w=0.64 l=0.15
X24 VPWR VGND VPWR VPWR sky130_fd_pr__pfet_01v8_hvt ad=0.226 pd=2.26 as=0 ps=0 w=0.87 l=1.05
X25 a_9919_8439# _060_ a_10153_8573# VGND sky130_fd_pr__nfet_01v8 ad=0.109 pd=1.36 as=0.0441 ps=0.63 w=0.42 l=0.15
X26 VGND VPWR VGND VGND sky130_fd_pr__nfet_01v8 ad=0.143 pd=1.62 as=86.8 ps=916 w=0.55 l=0.59
X27 a_8022_7119# clknet_0_clk VGND VGND sky130_fd_pr__nfet_01v8 ad=0.0588 pd=0.7 as=0.111 ps=1.37 w=0.42 l=0.15
X28 VPWR VGND VPWR VPWR sky130_fd_pr__pfet_01v8_hvt ad=0.226 pd=2.26 as=0 ps=0 w=0.87 l=2.89
X29 VGND VPWR VGND VGND sky130_fd_pr__nfet_01v8 ad=0.143 pd=1.62 as=0 ps=0 w=0.55 l=4.73
X30 VPWR clknet_1_1__leaf_clk a_6007_8751# VPWR sky130_fd_pr__pfet_01v8_hvt ad=0.0864 pd=0.91 as=0.166 ps=1.8 w=0.64 l=0.15
X31 a_8815_9527# a_9088_9527# a_9046_9655# VGND sky130_fd_pr__nfet_01v8 ad=0.108 pd=1.36 as=0.0441 ps=0.63 w=0.42 l=0.15
X32 VPWR _043_ a_7111_10383# VPWR sky130_fd_pr__pfet_01v8_hvt ad=0.165 pd=1.33 as=0.26 ps=2.52 w=1 l=0.15
X33 VPWR VGND VPWR VPWR sky130_fd_pr__pfet_01v8_hvt ad=0.226 pd=2.26 as=0 ps=0 w=0.87 l=1.97
X34 VGND VPWR VGND VGND sky130_fd_pr__nfet_01v8 ad=0.143 pd=1.62 as=0 ps=0 w=0.55 l=1.05
X35 VPWR a_5326_7093# a_5253_7119# VPWR sky130_fd_pr__pfet_01v8_hvt ad=0.179 pd=1.26 as=0.0766 ps=0.785 w=0.42 l=0.15
X36 VGND a_9827_7351# _082_ VGND sky130_fd_pr__nfet_01v8 ad=0.122 pd=1.08 as=0.169 ps=1.82 w=0.65 l=0.15
X37 VPWR clknet_1_1__leaf_clk a_8951_10927# VPWR sky130_fd_pr__pfet_01v8_hvt ad=0.0864 pd=0.91 as=0.166 ps=1.8 w=0.64 l=0.15
X38 a_1761_2767# _007_ VGND VGND sky130_fd_pr__nfet_01v8 ad=0.0813 pd=0.83 as=0.109 ps=1.36 w=0.42 l=0.15
X39 VGND VPWR VGND VGND sky130_fd_pr__nfet_01v8 ad=0.143 pd=1.62 as=0 ps=0 w=0.55 l=4.73
X40 VPWR pulse a_1407_10927# VPWR sky130_fd_pr__pfet_01v8_hvt ad=0.162 pd=1.32 as=0.265 ps=2.53 w=1 l=0.15
X41 VPWR _001_ a_2481_5487# VPWR sky130_fd_pr__pfet_01v8_hvt ad=0.109 pd=1.36 as=0.0578 ps=0.695 w=0.42 l=0.15
X42 VGND counter\[3\] a_2472_10901# VGND sky130_fd_pr__nfet_01v8 ad=0.208 pd=1.94 as=0.107 ps=0.98 w=0.65 l=0.15
X43 a_4169_9001# counter\[4\] VPWR VPWR sky130_fd_pr__pfet_01v8_hvt ad=0.138 pd=1.27 as=0.14 ps=1.28 w=1 l=0.15
X44 a_1925_2473# net2 VGND VGND sky130_fd_pr__nfet_01v8 ad=0.107 pd=0.98 as=0.208 ps=1.94 w=0.65 l=0.15
X45 VGND VPWR VGND VGND sky130_fd_pr__nfet_01v8 ad=0.143 pd=1.62 as=0 ps=0 w=0.55 l=0.59
X46 VPWR a_6527_6263# _042_ VPWR sky130_fd_pr__pfet_01v8_hvt ad=0.167 pd=1.39 as=0.475 ps=2.95 w=1 l=0.15
X47 VGND VPWR VGND VGND sky130_fd_pr__nfet_01v8 ad=0.143 pd=1.62 as=0 ps=0 w=0.55 l=4.73
X48 VGND VPWR VGND VGND sky130_fd_pr__nfet_01v8 ad=0.143 pd=1.62 as=0 ps=0 w=0.55 l=1.05
X49 VPWR VGND VPWR VPWR sky130_fd_pr__pfet_01v8_hvt ad=0.226 pd=2.26 as=0 ps=0 w=0.87 l=0.59
X50 VGND a_4227_5161# a_4234_5065# VGND sky130_fd_pr__nfet_01v8 ad=0.0567 pd=0.69 as=0.109 ps=1.36 w=0.42 l=0.15
X51 a_5253_7119# a_4719_7125# a_5158_7119# VPWR sky130_fd_pr__pfet_01v8_hvt ad=0.0766 pd=0.785 as=0.0682 ps=0.745 w=0.42 l=0.15
X52 a_4319_7637# clknet_1_0__leaf_clk VGND VGND sky130_fd_pr__nfet_01v8 ad=0.109 pd=1.36 as=0.0567 ps=0.69 w=0.42 l=0.15
X53 VGND VPWR VGND VGND sky130_fd_pr__nfet_01v8 ad=0.143 pd=1.62 as=0 ps=0 w=0.55 l=4.73
X54 _074_ a_5915_5487# VPWR VPWR sky130_fd_pr__pfet_01v8_hvt ad=0.26 pd=2.52 as=0.142 ps=1.33 w=1 l=0.15
X55 a_2849_6397# _065_ a_2777_6397# VGND sky130_fd_pr__nfet_01v8 ad=0.0441 pd=0.63 as=0.0441 ps=0.63 w=0.42 l=0.15
X56 VPWR a_4227_9513# a_4234_9417# VPWR sky130_fd_pr__pfet_01v8_hvt ad=0.0864 pd=0.91 as=0.166 ps=1.8 w=0.64 l=0.15
X57 clknet_1_0__leaf_clk a_4053_6005# VGND VGND sky130_fd_pr__nfet_01v8 ad=0.0588 pd=0.7 as=0.0588 ps=0.7 w=0.42 l=0.15
X58 VPWR a_7258_4511# a_7185_4765# VPWR sky130_fd_pr__pfet_01v8_hvt ad=0.179 pd=1.26 as=0.0766 ps=0.785 w=0.42 l=0.15
X59 a_4434_5220# a_4227_5161# a_4610_4943# VPWR sky130_fd_pr__pfet_01v8_hvt ad=0.0682 pd=0.745 as=0.0766 ps=0.785 w=0.42 l=0.15
X60 a_3481_9867# _068_ VGND VGND sky130_fd_pr__nfet_01v8 ad=0.0567 pd=0.69 as=0.112 ps=1.04 w=0.42 l=0.15
X61 ones[8] a_9963_9295# VPWR VPWR sky130_fd_pr__pfet_01v8_hvt ad=0.205 pd=2.1 as=0.115 ps=1.08 w=0.79 l=0.15
X62 VGND _004_ a_4873_7663# VGND sky130_fd_pr__nfet_01v8 ad=0.109 pd=1.36 as=0.0813 ps=0.83 w=0.42 l=0.15
X63 _052_ net4 VGND VGND sky130_fd_pr__nfet_01v8 ad=0.0877 pd=0.92 as=0.169 ps=1.82 w=0.65 l=0.15
X64 a_6503_3677# a_5639_3311# a_6246_3423# VPWR sky130_fd_pr__pfet_01v8_hvt ad=0.0567 pd=0.69 as=0.109 ps=1.07 w=0.42 l=0.15
X65 a_7469_10703# net4 a_7385_10703# VGND sky130_fd_pr__nfet_01v8 ad=0.184 pd=1.21 as=0.0877 ps=0.92 w=0.65 l=0.15
X66 VPWR VGND VPWR VPWR sky130_fd_pr__pfet_01v8_hvt ad=0.226 pd=2.26 as=0 ps=0 w=0.87 l=1.97
X67 VPWR net9 a_3215_4551# VPWR sky130_fd_pr__pfet_01v8_hvt ad=0.118 pd=1.4 as=0.0567 ps=0.69 w=0.42 l=0.15
X68 counter\[7\] a_2439_2741# VGND VGND sky130_fd_pr__nfet_01v8 ad=0.169 pd=1.82 as=0.0877 ps=0.92 w=0.65 l=0.15
X69 a_5941_5309# _037_ VGND VGND sky130_fd_pr__nfet_01v8 ad=0.0441 pd=0.63 as=0.132 ps=1.14 w=0.42 l=0.15
X70 VPWR a_7895_8916# _008_ VPWR sky130_fd_pr__pfet_01v8_hvt ad=0.115 pd=1.08 as=0.205 ps=2.1 w=0.79 l=0.15
X71 _017_ _041_ VGND VGND sky130_fd_pr__nfet_01v8 ad=0.0877 pd=0.92 as=0.169 ps=1.82 w=0.65 l=0.15
X72 _061_ a_3243_11293# VPWR VPWR sky130_fd_pr__pfet_01v8_hvt ad=0.26 pd=2.52 as=0.228 ps=1.74 w=1 l=0.15
X73 VGND net4 a_8307_10383# VGND sky130_fd_pr__nfet_01v8 ad=0.0754 pd=0.81 as=0.135 ps=1.56 w=0.52 l=0.15
X74 VPWR VGND VPWR VPWR sky130_fd_pr__pfet_01v8_hvt ad=0.226 pd=2.26 as=0 ps=0 w=0.87 l=1.05
X75 VGND VPWR VGND VGND sky130_fd_pr__nfet_01v8 ad=0.143 pd=1.62 as=0 ps=0 w=0.55 l=0.59
X76 a_7185_4765# a_6651_4399# a_7090_4765# VPWR sky130_fd_pr__pfet_01v8_hvt ad=0.0766 pd=0.785 as=0.0682 ps=0.745 w=0.42 l=0.15
X77 a_4610_4943# a_4363_5321# VPWR VPWR sky130_fd_pr__pfet_01v8_hvt ad=0.0766 pd=0.785 as=0.179 ps=1.26 w=0.42 l=0.15
X78 VPWR VGND VPWR VPWR sky130_fd_pr__pfet_01v8_hvt ad=0.226 pd=2.26 as=0 ps=0 w=0.87 l=4.73
X79 VGND _043_ a_5537_5263# VGND sky130_fd_pr__nfet_01v8 ad=0.169 pd=1.82 as=0.0877 ps=0.92 w=0.65 l=0.15
X80 a_6069_5487# counter\[4\] a_5997_5487# VGND sky130_fd_pr__nfet_01v8 ad=0.0441 pd=0.63 as=0.0441 ps=0.63 w=0.42 l=0.15
X81 a_8942_5220# a_8742_5065# a_9091_5309# VGND sky130_fd_pr__nfet_01v8 ad=0.0621 pd=0.705 as=0.0696 ps=0.765 w=0.36 l=0.15
X82 a_4322_10927# counter\[2\] VGND VGND sky130_fd_pr__nfet_01v8 ad=0.0693 pd=0.75 as=0.175 ps=1.26 w=0.42 l=0.15
X83 counter\[2\] a_8143_6005# VGND VGND sky130_fd_pr__nfet_01v8 ad=0.169 pd=1.82 as=0.0877 ps=0.92 w=0.65 l=0.15
X84 a_7975_6031# a_7111_6037# a_7718_6005# VPWR sky130_fd_pr__pfet_01v8_hvt ad=0.0567 pd=0.69 as=0.109 ps=1.07 w=0.42 l=0.15
X85 VPWR _060_ a_9827_7351# VPWR sky130_fd_pr__pfet_01v8_hvt ad=0.0567 pd=0.69 as=0.0744 ps=0.815 w=0.42 l=0.15
X86 a_7550_6031# a_7111_6037# a_7465_6031# VGND sky130_fd_pr__nfet_01v8 ad=0.0621 pd=0.705 as=0.0813 ps=0.83 w=0.36 l=0.15
X87 VPWR counter\[3\] a_1665_10383# VPWR sky130_fd_pr__pfet_01v8_hvt ad=0.128 pd=1.03 as=0.0987 ps=0.89 w=0.42 l=0.15
X88 a_6835_3968# _083_ VPWR VPWR sky130_fd_pr__pfet_01v8_hvt ad=0.0662 pd=0.735 as=0.0567 ps=0.69 w=0.42 l=0.15
X89 a_8355_5175# a_8451_5175# VPWR VPWR sky130_fd_pr__pfet_01v8_hvt ad=0.27 pd=2.54 as=0.135 ps=1.27 w=1 l=0.15
X90 clknet_1_1__leaf_clk a_8022_7119# VGND VGND sky130_fd_pr__nfet_01v8 ad=0.0588 pd=0.7 as=0.0588 ps=0.7 w=0.42 l=0.15
X91 _056_ a_1665_10383# VGND VGND sky130_fd_pr__nfet_01v8 ad=0.169 pd=1.82 as=0.103 ps=1 w=0.65 l=0.15
X92 a_2589_4221# net7 a_2501_4221# VGND sky130_fd_pr__nfet_01v8 ad=0.0798 pd=0.8 as=0.0609 ps=0.71 w=0.42 l=0.15
X93 _085_ a_6835_3968# VPWR VPWR sky130_fd_pr__pfet_01v8_hvt ad=0.26 pd=2.52 as=0.142 ps=1.33 w=1 l=0.15
X94 a_4958_2741# a_4790_2767# VGND VGND sky130_fd_pr__nfet_01v8 ad=0.0989 pd=0.995 as=0.121 ps=1.08 w=0.64 l=0.15
X95 a_1573_8213# a_1407_8213# VGND VGND sky130_fd_pr__nfet_01v8 ad=0.109 pd=1.36 as=0.0567 ps=0.69 w=0.42 l=0.15
X96 ones[6] a_10239_7663# VPWR VPWR sky130_fd_pr__pfet_01v8_hvt ad=0.205 pd=2.1 as=0.115 ps=1.08 w=0.79 l=0.15
X97 VGND VPWR VGND VGND sky130_fd_pr__nfet_01v8 ad=0.143 pd=1.62 as=0 ps=0 w=0.55 l=0.59
X98 ones[2] a_10239_3311# VGND VGND sky130_fd_pr__nfet_01v8 ad=0.135 pd=1.56 as=0.0754 ps=0.81 w=0.52 l=0.15
X99 VGND _059_ a_6375_2775# VGND sky130_fd_pr__nfet_01v8 ad=0.097 pd=0.975 as=0.109 ps=1.36 w=0.42 l=0.15
X100 VGND _078_ a_5057_4399# VGND sky130_fd_pr__nfet_01v8 ad=0.132 pd=1.14 as=0.0441 ps=0.63 w=0.42 l=0.15
X101 VPWR a_4053_6005# clknet_1_0__leaf_clk VPWR sky130_fd_pr__pfet_01v8_hvt ad=0.14 pd=1.28 as=0.14 ps=1.28 w=1 l=0.15
X102 VGND a_6607_5175# counter\[10\] VGND sky130_fd_pr__nfet_01v8 ad=0.0877 pd=0.92 as=0.169 ps=1.82 w=0.65 l=0.15
X103 a_1748_5303# _069_ a_1676_5303# VGND sky130_fd_pr__nfet_01v8 ad=0.0535 pd=0.675 as=0.0441 ps=0.63 w=0.42 l=0.15
X104 VPWR a_2134_5461# a_2063_5487# VPWR sky130_fd_pr__pfet_01v8_hvt ad=0.179 pd=1.26 as=0.109 ps=1.07 w=0.75 l=0.15
X105 a_4781_6575# a_4234_6849# a_4434_6549# VPWR sky130_fd_pr__pfet_01v8_hvt ad=0.0578 pd=0.695 as=0.0682 ps=0.745 w=0.42 l=0.15
X106 a_4162_6575# a_3847_6727# VGND VGND sky130_fd_pr__nfet_01v8 ad=0.066 pd=0.745 as=0.109 ps=1.36 w=0.42 l=0.15
X107 VGND a_2473_6549# _049_ VGND sky130_fd_pr__nfet_01v8 ad=0.257 pd=1.44 as=0.169 ps=1.82 w=0.65 l=0.15
X108 VPWR a_6671_3579# a_6587_3677# VPWR sky130_fd_pr__pfet_01v8_hvt ad=0.111 pd=1.37 as=0.0882 ps=0.84 w=0.42 l=0.15
X109 VGND a_3847_6727# counter\[3\] VGND sky130_fd_pr__nfet_01v8 ad=0.0877 pd=0.92 as=0.169 ps=1.82 w=0.65 l=0.15
X110 a_4675_7663# a_4455_7663# VGND VGND sky130_fd_pr__nfet_01v8 ad=0.0696 pd=0.765 as=0.121 ps=1.08 w=0.42 l=0.15
X111 VGND _050_ a_4505_9839# VGND sky130_fd_pr__nfet_01v8 ad=0.132 pd=1.14 as=0.0441 ps=0.63 w=0.42 l=0.15
X112 VGND VPWR VGND VGND sky130_fd_pr__nfet_01v8 ad=0.143 pd=1.62 as=0 ps=0 w=0.55 l=0.59
X113 VPWR _026_ _031_ VPWR sky130_fd_pr__pfet_01v8_hvt ad=0.26 pd=2.52 as=0.135 ps=1.27 w=1 l=0.15
X114 a_7676_6409# a_7277_6037# a_7550_6031# VGND sky130_fd_pr__nfet_01v8 ad=0.0696 pd=0.765 as=0.0621 ps=0.705 w=0.36 l=0.15
X115 a_3220_9655# _027_ a_3148_9655# VGND sky130_fd_pr__nfet_01v8 ad=0.0535 pd=0.675 as=0.0441 ps=0.63 w=0.42 l=0.15
X116 VGND counter\[1\] a_1941_10749# VGND sky130_fd_pr__nfet_01v8 ad=0.103 pd=1 as=0.0609 ps=0.71 w=0.42 l=0.15
X117 a_5411_7815# a_5684_7643# a_5642_7669# VGND sky130_fd_pr__nfet_01v8 ad=0.108 pd=1.36 as=0.0441 ps=0.63 w=0.42 l=0.15
X118 VGND a_7895_8916# _008_ VGND sky130_fd_pr__nfet_01v8 ad=0.0754 pd=0.81 as=0.135 ps=1.56 w=0.52 l=0.15
X119 VPWR VGND VPWR VPWR sky130_fd_pr__pfet_01v8_hvt ad=0.226 pd=2.26 as=0 ps=0 w=0.87 l=1.05
X120 a_3943_5175# a_4234_5065# a_4185_4943# VPWR sky130_fd_pr__pfet_01v8_hvt ad=0.0567 pd=0.69 as=0.0882 ps=0.84 w=0.42 l=0.15
X121 VPWR counter\[9\] a_5607_11079# VPWR sky130_fd_pr__pfet_01v8_hvt ad=0.118 pd=1.4 as=0.0567 ps=0.69 w=0.42 l=0.15
X122 a_7123_5321# a_6987_5161# a_6703_5175# VPWR sky130_fd_pr__pfet_01v8_hvt ad=0.109 pd=1.07 as=0.0567 ps=0.69 w=0.42 l=0.15
X123 a_9558_11039# a_9390_11293# VGND VGND sky130_fd_pr__nfet_01v8 ad=0.0989 pd=0.995 as=0.121 ps=1.08 w=0.64 l=0.15
X124 VGND VPWR VGND VGND sky130_fd_pr__nfet_01v8 ad=0.143 pd=1.62 as=0 ps=0 w=0.55 l=0.59
X125 VPWR a_8942_5220# a_8871_5321# VPWR sky130_fd_pr__pfet_01v8_hvt ad=0.179 pd=1.26 as=0.109 ps=1.07 w=0.75 l=0.15
X126 VGND clknet_1_1__leaf_clk a_6559_9839# VGND sky130_fd_pr__nfet_01v8 ad=0.0567 pd=0.69 as=0.109 ps=1.36 w=0.42 l=0.15
X127 VGND VPWR VGND VGND sky130_fd_pr__nfet_01v8 ad=0.143 pd=1.62 as=0 ps=0 w=0.55 l=2.89
X128 net5 a_2439_8181# VPWR VPWR sky130_fd_pr__pfet_01v8_hvt ad=0.135 pd=1.27 as=0.135 ps=1.27 w=1 l=0.15
X129 a_10245_5309# _030_ a_10173_5309# VGND sky130_fd_pr__nfet_01v8 ad=0.0441 pd=0.63 as=0.0441 ps=0.63 w=0.42 l=0.15
X130 a_9135_5737# _052_ VPWR VPWR sky130_fd_pr__pfet_01v8_hvt ad=0.14 pd=1.28 as=0.148 ps=1.29 w=1 l=0.15
X131 _067_ a_2695_6144# VGND VGND sky130_fd_pr__nfet_01v8 ad=0.169 pd=1.82 as=0.132 ps=1.14 w=0.65 l=0.15
X132 a_4526_7637# a_4326_7937# a_4675_7663# VGND sky130_fd_pr__nfet_01v8 ad=0.0621 pd=0.705 as=0.0696 ps=0.765 w=0.36 l=0.15
X133 a_4434_5220# a_4234_5065# a_4583_5309# VGND sky130_fd_pr__nfet_01v8 ad=0.0621 pd=0.705 as=0.0696 ps=0.765 w=0.36 l=0.15
X134 VPWR counter\[0\] a_9137_7913# VPWR sky130_fd_pr__pfet_01v8_hvt ad=0.14 pd=1.28 as=0.265 ps=2.53 w=1 l=0.15
X135 _012_ _025_ VGND VGND sky130_fd_pr__nfet_01v8 ad=0.169 pd=1.17 as=0.0877 ps=0.92 w=0.65 l=0.15
X136 a_3259_7497# a_3123_7337# a_2839_7351# VPWR sky130_fd_pr__pfet_01v8_hvt ad=0.109 pd=1.07 as=0.0567 ps=0.69 w=0.42 l=0.15
X137 a_6817_4399# a_6651_4399# VGND VGND sky130_fd_pr__nfet_01v8 ad=0.109 pd=1.36 as=0.0567 ps=0.69 w=0.42 l=0.15
X138 a_3775_9527# a_3943_9527# VGND VGND sky130_fd_pr__nfet_01v8 ad=0.169 pd=1.82 as=0.0877 ps=0.92 w=0.65 l=0.15
X139 a_5993_3311# _016_ VGND VGND sky130_fd_pr__nfet_01v8 ad=0.0813 pd=0.83 as=0.109 ps=1.36 w=0.42 l=0.15
X140 a_5215_2767# a_4351_2773# a_4958_2741# VPWR sky130_fd_pr__pfet_01v8_hvt ad=0.0567 pd=0.69 as=0.109 ps=1.07 w=0.42 l=0.15
X141 a_3847_5175# a_3943_5175# VPWR VPWR sky130_fd_pr__pfet_01v8_hvt ad=0.27 pd=2.54 as=0.135 ps=1.27 w=1 l=0.15
X142 clknet_1_0__leaf_clk a_4053_6005# VGND VGND sky130_fd_pr__nfet_01v8 ad=0.0588 pd=0.7 as=0.0588 ps=0.7 w=0.42 l=0.15
X143 _072_ a_1632_3971# VGND VGND sky130_fd_pr__nfet_01v8 ad=0.169 pd=1.82 as=0.1 ps=0.985 w=0.65 l=0.15
X144 VPWR VGND VPWR VPWR sky130_fd_pr__pfet_01v8_hvt ad=0.226 pd=2.26 as=0 ps=0 w=0.87 l=0.59
X145 clknet_0_clk a_5722_6575# VPWR VPWR sky130_fd_pr__pfet_01v8_hvt ad=0.14 pd=1.28 as=0.14 ps=1.28 w=1 l=0.15
X146 VPWR clknet_1_0__leaf_clk a_5639_3311# VPWR sky130_fd_pr__pfet_01v8_hvt ad=0.0864 pd=0.91 as=0.166 ps=1.8 w=0.64 l=0.15
X147 VGND a_4434_5220# a_4363_5321# VGND sky130_fd_pr__nfet_01v8 ad=0.121 pd=1.08 as=0.0989 ps=0.995 w=0.64 l=0.15
X148 a_9275_6263# _026_ VPWR VPWR sky130_fd_pr__pfet_01v8_hvt ad=0.0662 pd=0.735 as=0.142 ps=1.33 w=0.42 l=0.15
X149 a_4873_7663# a_4319_7637# a_4526_7637# VGND sky130_fd_pr__nfet_01v8 ad=0.0813 pd=0.83 as=0.0621 ps=0.705 w=0.36 l=0.15
X150 a_4781_5321# a_4227_5161# a_4434_5220# VGND sky130_fd_pr__nfet_01v8 ad=0.0813 pd=0.83 as=0.0621 ps=0.705 w=0.36 l=0.15
X151 clknet_1_0__leaf_clk a_4053_6005# VPWR VPWR sky130_fd_pr__pfet_01v8_hvt ad=0.14 pd=1.28 as=0.138 ps=1.27 w=1 l=0.15
X152 VGND a_8022_7119# clknet_1_1__leaf_clk VGND sky130_fd_pr__nfet_01v8 ad=0.0588 pd=0.7 as=0.0588 ps=0.7 w=0.42 l=0.15
X153 a_4790_2767# a_4351_2773# a_4705_2767# VGND sky130_fd_pr__nfet_01v8 ad=0.0621 pd=0.705 as=0.0813 ps=0.83 w=0.36 l=0.15
X154 VGND counter\[5\] a_4338_8751# VGND sky130_fd_pr__nfet_01v8 ad=0.257 pd=1.44 as=0.0894 ps=0.925 w=0.65 l=0.15
X155 VPWR VGND VPWR VPWR sky130_fd_pr__pfet_01v8_hvt ad=0.226 pd=2.26 as=0 ps=0 w=0.87 l=0.59
X156 VGND VPWR VGND VGND sky130_fd_pr__nfet_01v8 ad=0.143 pd=1.62 as=0 ps=0 w=0.55 l=4.73
X157 _062_ counter\[1\] a_1861_6351# VGND sky130_fd_pr__nfet_01v8 ad=0.169 pd=1.82 as=0.0877 ps=0.92 w=0.65 l=0.15
X158 VPWR clknet_1_0__leaf_clk a_1407_8213# VPWR sky130_fd_pr__pfet_01v8_hvt ad=0.0864 pd=0.91 as=0.166 ps=1.8 w=0.64 l=0.15
X159 VGND VPWR VGND VGND sky130_fd_pr__nfet_01v8 ad=0.143 pd=1.62 as=0 ps=0 w=0.55 l=1.97
X160 a_1632_3971# _068_ VGND VGND sky130_fd_pr__nfet_01v8 ad=0.0567 pd=0.69 as=0.109 ps=1.36 w=0.42 l=0.15
X161 VPWR a_2439_2741# a_2355_2767# VPWR sky130_fd_pr__pfet_01v8_hvt ad=0.111 pd=1.37 as=0.0882 ps=0.84 w=0.42 l=0.15
X162 _050_ net12 VPWR VPWR sky130_fd_pr__pfet_01v8_hvt ad=0.135 pd=1.27 as=0.215 ps=1.43 w=1 l=0.15
X163 VPWR a_7255_3285# _054_ VPWR sky130_fd_pr__pfet_01v8_hvt ad=0.228 pd=1.74 as=0.26 ps=2.52 w=1 l=0.15
X164 _012_ _025_ a_9411_2767# VPWR sky130_fd_pr__pfet_01v8_hvt ad=0.135 pd=1.27 as=0.26 ps=2.52 w=1 l=0.15
X165 clknet_0_clk a_5722_6575# VGND VGND sky130_fd_pr__nfet_01v8 ad=0.0588 pd=0.7 as=0.0588 ps=0.7 w=0.42 l=0.15
X166 VGND a_6987_5161# a_6994_5065# VGND sky130_fd_pr__nfet_01v8 ad=0.0567 pd=0.69 as=0.109 ps=1.36 w=0.42 l=0.15
X167 VGND VPWR VGND VGND sky130_fd_pr__nfet_01v8 ad=0.143 pd=1.62 as=0 ps=0 w=0.55 l=0.59
X168 VPWR a_1547_10004# _007_ VPWR sky130_fd_pr__pfet_01v8_hvt ad=0.115 pd=1.08 as=0.205 ps=2.1 w=0.79 l=0.15
X169 net7 a_7039_9019# VGND VGND sky130_fd_pr__nfet_01v8 ad=0.0877 pd=0.92 as=0.0877 ps=0.92 w=0.65 l=0.15
X170 a_4916_3145# a_4517_2773# a_4790_2767# VGND sky130_fd_pr__nfet_01v8 ad=0.0696 pd=0.765 as=0.0621 ps=0.705 w=0.36 l=0.15
X171 VPWR _028_ a_4627_8320# VPWR sky130_fd_pr__pfet_01v8_hvt ad=0.0567 pd=0.69 as=0.109 ps=1.36 w=0.42 l=0.15
X172 a_1547_10004# _082_ VPWR VPWR sky130_fd_pr__pfet_01v8_hvt ad=0.205 pd=2.1 as=0.115 ps=1.08 w=0.79 l=0.15
X173 a_9209_10389# a_9043_10389# VGND VGND sky130_fd_pr__nfet_01v8 ad=0.109 pd=1.36 as=0.0567 ps=0.69 w=0.42 l=0.15
X174 clknet_1_1__leaf_clk a_8022_7119# VPWR VPWR sky130_fd_pr__pfet_01v8_hvt ad=0.14 pd=1.28 as=0.14 ps=1.28 w=1 l=0.15
X175 a_6871_9117# a_6173_8751# a_6614_8863# VGND sky130_fd_pr__nfet_01v8 ad=0.0684 pd=0.74 as=0.0989 ps=0.995 w=0.36 l=0.15
X176 VPWR _055_ a_3307_9991# VPWR sky130_fd_pr__pfet_01v8_hvt ad=0.118 pd=1.4 as=0.0567 ps=0.69 w=0.42 l=0.15
X177 VGND clknet_1_0__leaf_clk a_1407_2773# VGND sky130_fd_pr__nfet_01v8 ad=0.0567 pd=0.69 as=0.109 ps=1.36 w=0.42 l=0.15
X178 VPWR a_5383_2741# a_5299_2767# VPWR sky130_fd_pr__pfet_01v8_hvt ad=0.111 pd=1.37 as=0.0882 ps=0.84 w=0.42 l=0.15
X179 a_5709_7497# a_4719_7125# a_5583_7119# VGND sky130_fd_pr__nfet_01v8 ad=0.066 pd=0.745 as=0.0684 ps=0.74 w=0.36 l=0.15
X180 VPWR a_3939_7815# counter\[4\] VPWR sky130_fd_pr__pfet_01v8_hvt ad=0.135 pd=1.27 as=0.26 ps=2.52 w=1 l=0.15
X181 VPWR net14 _091_ VPWR sky130_fd_pr__pfet_01v8_hvt ad=0.26 pd=2.52 as=0.135 ps=1.27 w=1 l=0.15
X182 a_4709_8573# _028_ a_4627_8320# VGND sky130_fd_pr__nfet_01v8 ad=0.0441 pd=0.63 as=0.109 ps=1.36 w=0.42 l=0.15
X183 VPWR VGND VPWR VPWR sky130_fd_pr__pfet_01v8_hvt ad=0.226 pd=2.26 as=0 ps=0 w=0.87 l=0.59
X184 VGND VPWR VGND VGND sky130_fd_pr__nfet_01v8 ad=0.143 pd=1.62 as=0 ps=0 w=0.55 l=0.59
X185 VGND a_4053_6005# clknet_1_0__leaf_clk VGND sky130_fd_pr__nfet_01v8 ad=0.0588 pd=0.7 as=0.0588 ps=0.7 w=0.42 l=0.15
X186 VGND _080_ a_1669_6727# VGND sky130_fd_pr__nfet_01v8 ad=0.109 pd=1.36 as=0.0567 ps=0.69 w=0.42 l=0.15
X187 VPWR a_3330_7396# a_3259_7497# VPWR sky130_fd_pr__pfet_01v8_hvt ad=0.179 pd=1.26 as=0.109 ps=1.07 w=0.75 l=0.15
X188 VPWR VGND VPWR VPWR sky130_fd_pr__pfet_01v8_hvt ad=0.226 pd=2.26 as=0 ps=0 w=0.87 l=4.73
X189 ones[8] a_9963_9295# VGND VGND sky130_fd_pr__nfet_01v8 ad=0.135 pd=1.56 as=0.0754 ps=0.81 w=0.52 l=0.15
X190 a_7951_5487# a_7822_5761# a_7531_5461# VGND sky130_fd_pr__nfet_01v8 ad=0.0989 pd=0.995 as=0.0684 ps=0.74 w=0.36 l=0.15
X191 a_7531_5461# a_7822_5761# a_7773_5853# VPWR sky130_fd_pr__pfet_01v8_hvt ad=0.0567 pd=0.69 as=0.0882 ps=0.84 w=0.42 l=0.15
X192 VPWR a_2014_8181# a_1941_8207# VPWR sky130_fd_pr__pfet_01v8_hvt ad=0.179 pd=1.26 as=0.0766 ps=0.785 w=0.42 l=0.15
X193 _091_ net14 VGND VGND sky130_fd_pr__nfet_01v8 ad=0.0877 pd=0.92 as=0.169 ps=1.82 w=0.65 l=0.15
X194 VGND a_1407_10927# net1 VGND sky130_fd_pr__nfet_01v8 ad=0.109 pd=1.36 as=0.0567 ps=0.69 w=0.42 l=0.15
X195 VPWR VGND VPWR VPWR sky130_fd_pr__pfet_01v8_hvt ad=0.226 pd=2.26 as=0 ps=0 w=0.87 l=0.59
X196 a_8009_3145# a_7019_2773# a_7883_2767# VGND sky130_fd_pr__nfet_01v8 ad=0.066 pd=0.745 as=0.0684 ps=0.74 w=0.36 l=0.15
X197 VPWR _030_ a_10011_5175# VPWR sky130_fd_pr__pfet_01v8_hvt ad=0.0567 pd=0.69 as=0.0662 ps=0.735 w=0.42 l=0.15
X198 a_5215_2767# a_4517_2773# a_4958_2741# VGND sky130_fd_pr__nfet_01v8 ad=0.0684 pd=0.74 as=0.0989 ps=0.995 w=0.36 l=0.15
X199 VPWR _021_ a_9289_5321# VPWR sky130_fd_pr__pfet_01v8_hvt ad=0.109 pd=1.36 as=0.0578 ps=0.695 w=0.42 l=0.15
X200 a_8963_8585# a_8834_8329# a_8543_8439# VGND sky130_fd_pr__nfet_01v8 ad=0.0989 pd=0.995 as=0.0684 ps=0.74 w=0.36 l=0.15
X201 a_7373_2767# _015_ VPWR VPWR sky130_fd_pr__pfet_01v8_hvt ad=0.0578 pd=0.695 as=0.109 ps=1.36 w=0.42 l=0.15
X202 VGND a_8051_2741# a_8009_3145# VGND sky130_fd_pr__nfet_01v8 ad=0.109 pd=1.36 as=0.066 ps=0.745 w=0.42 l=0.15
X203 VPWR counter\[1\] _065_ VPWR sky130_fd_pr__pfet_01v8_hvt ad=0.165 pd=1.33 as=0.26 ps=2.52 w=1 l=0.15
X204 _026_ a_9655_9813# VPWR VPWR sky130_fd_pr__pfet_01v8_hvt ad=0.165 pd=1.33 as=0.3 ps=2.6 w=1 l=0.15
X205 VPWR VGND VPWR VPWR sky130_fd_pr__pfet_01v8_hvt ad=0.226 pd=2.26 as=0 ps=0 w=0.87 l=0.59
X206 a_3058_7485# a_2743_7351# VGND VGND sky130_fd_pr__nfet_01v8 ad=0.066 pd=0.745 as=0.109 ps=1.36 w=0.42 l=0.15
X207 a_1643_5461# a_1927_5461# a_1862_5487# VGND sky130_fd_pr__nfet_01v8 ad=0.0684 pd=0.74 as=0.066 ps=0.745 w=0.36 l=0.15
X208 VGND a_6803_9513# a_6810_9417# VGND sky130_fd_pr__nfet_01v8 ad=0.0567 pd=0.69 as=0.109 ps=1.36 w=0.42 l=0.15
X209 VPWR net13 a_8583_10927# VPWR sky130_fd_pr__pfet_01v8_hvt ad=0.115 pd=1.08 as=0.205 ps=2.1 w=0.79 l=0.15
X210 VPWR a_8079_5162# _004_ VPWR sky130_fd_pr__pfet_01v8_hvt ad=0.115 pd=1.08 as=0.205 ps=2.1 w=0.79 l=0.15
X211 VPWR counter\[3\] a_4043_10901# VPWR sky130_fd_pr__pfet_01v8_hvt ad=0.0777 pd=0.79 as=0.0588 ps=0.7 w=0.42 l=0.15
X212 VPWR VGND VPWR VPWR sky130_fd_pr__pfet_01v8_hvt ad=0.226 pd=2.26 as=0 ps=0 w=0.87 l=4.73
X213 VGND a_5722_6575# clknet_0_clk VGND sky130_fd_pr__nfet_01v8 ad=0.0578 pd=0.695 as=0.0588 ps=0.7 w=0.42 l=0.15
X214 a_7185_2773# a_7019_2773# VPWR VPWR sky130_fd_pr__pfet_01v8_hvt ad=0.166 pd=1.8 as=0.0864 ps=0.91 w=0.64 l=0.15
X215 VPWR a_7815_5461# a_7822_5761# VPWR sky130_fd_pr__pfet_01v8_hvt ad=0.0864 pd=0.91 as=0.166 ps=1.8 w=0.64 l=0.15
X216 a_2736_9001# _039_ VGND VGND sky130_fd_pr__nfet_01v8 ad=0.0567 pd=0.69 as=0.109 ps=1.36 w=0.42 l=0.15
X217 clknet_1_0__leaf_clk a_4053_6005# VGND VGND sky130_fd_pr__nfet_01v8 ad=0.0588 pd=0.7 as=0.111 ps=1.37 w=0.42 l=0.15
X218 a_9279_8725# _026_ VPWR VPWR sky130_fd_pr__pfet_01v8_hvt ad=0.0735 pd=0.77 as=0.0777 ps=0.79 w=0.42 l=0.15
X219 net7 a_7039_9019# VPWR VPWR sky130_fd_pr__pfet_01v8_hvt ad=0.135 pd=1.27 as=0.135 ps=1.27 w=1 l=0.15
X220 _031_ net7 VPWR VPWR sky130_fd_pr__pfet_01v8_hvt ad=0.135 pd=1.27 as=0.26 ps=2.52 w=1 l=0.15
X221 _015_ a_2971_3311# VPWR VPWR sky130_fd_pr__pfet_01v8_hvt ad=0.205 pd=2.1 as=0.115 ps=1.08 w=0.79 l=0.15
X222 VGND VPWR VGND VGND sky130_fd_pr__nfet_01v8 ad=0.143 pd=1.62 as=0 ps=0 w=0.55 l=0.59
X223 ones[6] a_10239_7663# VGND VGND sky130_fd_pr__nfet_01v8 ad=0.135 pd=1.56 as=0.0754 ps=0.81 w=0.52 l=0.15
X224 a_8369_5487# a_7815_5461# a_8022_5461# VGND sky130_fd_pr__nfet_01v8 ad=0.0813 pd=0.83 as=0.0621 ps=0.705 w=0.36 l=0.15
X225 VGND VPWR VGND VGND sky130_fd_pr__nfet_01v8 ad=0.143 pd=1.62 as=0 ps=0 w=0.55 l=0.59
X226 VGND VPWR VGND VGND sky130_fd_pr__nfet_01v8 ad=0.143 pd=1.62 as=0 ps=0 w=0.55 l=1.05
X227 a_6423_9527# a_6519_9527# VGND VGND sky130_fd_pr__nfet_01v8 ad=0.169 pd=1.82 as=0.0877 ps=0.92 w=0.65 l=0.15
X228 a_7255_3285# _058_ VPWR VPWR sky130_fd_pr__pfet_01v8_hvt ad=0.0609 pd=0.71 as=0.228 ps=1.74 w=0.42 l=0.15
X229 VGND VPWR VGND VGND sky130_fd_pr__nfet_01v8 ad=0.143 pd=1.62 as=0 ps=0 w=0.55 l=1.97
X230 a_2115_2223# net3 a_1925_2473# VGND sky130_fd_pr__nfet_01v8 ad=0.107 pd=0.98 as=0.107 ps=0.98 w=0.65 l=0.15
X231 VPWR _009_ a_4781_5321# VPWR sky130_fd_pr__pfet_01v8_hvt ad=0.109 pd=1.36 as=0.0578 ps=0.695 w=0.42 l=0.15
X232 _068_ a_4043_10901# VGND VGND sky130_fd_pr__nfet_01v8 ad=0.107 pd=0.98 as=0.195 ps=1.9 w=0.65 l=0.15
X233 _038_ a_2795_4649# VGND VGND sky130_fd_pr__nfet_01v8 ad=0.175 pd=1.84 as=0.102 ps=0.99 w=0.65 l=0.15
X234 a_4455_7663# a_4326_7937# a_4035_7637# VGND sky130_fd_pr__nfet_01v8 ad=0.0989 pd=0.995 as=0.0684 ps=0.74 w=0.36 l=0.15
X235 a_4363_5321# a_4234_5065# a_3943_5175# VGND sky130_fd_pr__nfet_01v8 ad=0.0989 pd=0.995 as=0.0684 ps=0.74 w=0.36 l=0.15
X236 a_5779_5175# _023_ VPWR VPWR sky130_fd_pr__pfet_01v8_hvt ad=0.109 pd=1.36 as=0.0567 ps=0.69 w=0.42 l=0.15
X237 VGND a_3939_7815# counter\[4\] VGND sky130_fd_pr__nfet_01v8 ad=0.0877 pd=0.92 as=0.169 ps=1.82 w=0.65 l=0.15
X238 VGND VPWR VGND VGND sky130_fd_pr__nfet_01v8 ad=0.143 pd=1.62 as=0 ps=0 w=0.55 l=0.59
X239 VGND VPWR VGND VGND sky130_fd_pr__nfet_01v8 ad=0.143 pd=1.62 as=0 ps=0 w=0.55 l=2.89
X240 VGND VPWR VGND VGND sky130_fd_pr__nfet_01v8 ad=0.143 pd=1.62 as=0 ps=0 w=0.55 l=0.59
X241 clknet_1_1__leaf_clk a_8022_7119# VPWR VPWR sky130_fd_pr__pfet_01v8_hvt ad=0.14 pd=1.28 as=0.138 ps=1.27 w=1 l=0.15
X242 VGND VPWR VGND VGND sky130_fd_pr__nfet_01v8 ad=0.143 pd=1.62 as=0 ps=0 w=0.55 l=0.59
X243 _021_ _053_ a_9135_5737# VPWR sky130_fd_pr__pfet_01v8_hvt ad=0.265 pd=2.53 as=0.14 ps=1.28 w=1 l=0.15
X244 a_4434_9572# a_4234_9417# a_4583_9661# VGND sky130_fd_pr__nfet_01v8 ad=0.0621 pd=0.705 as=0.0696 ps=0.765 w=0.36 l=0.15
X245 clknet_1_1__leaf_clk a_8022_7119# VGND VGND sky130_fd_pr__nfet_01v8 ad=0.0588 pd=0.7 as=0.0588 ps=0.7 w=0.42 l=0.15
X246 a_3123_7337# clknet_1_0__leaf_clk VPWR VPWR sky130_fd_pr__pfet_01v8_hvt ad=0.166 pd=1.8 as=0.0864 ps=0.91 w=0.64 l=0.15
X247 a_9034_8484# a_8827_8425# a_9210_8207# VPWR sky130_fd_pr__pfet_01v8_hvt ad=0.0682 pd=0.745 as=0.0766 ps=0.785 w=0.42 l=0.15
X248 VGND VPWR VGND VGND sky130_fd_pr__nfet_01v8 ad=0.143 pd=1.62 as=0 ps=0 w=0.55 l=2.89
X249 a_1489_4943# _068_ VPWR VPWR sky130_fd_pr__pfet_01v8_hvt ad=0.109 pd=1.36 as=0.109 ps=1.36 w=0.42 l=0.15
X250 VPWR a_7363_5461# counter\[0\] VPWR sky130_fd_pr__pfet_01v8_hvt ad=0.135 pd=1.27 as=0.135 ps=1.27 w=1 l=0.15
X251 VPWR a_7619_8916# _009_ VPWR sky130_fd_pr__pfet_01v8_hvt ad=0.115 pd=1.08 as=0.205 ps=2.1 w=0.79 l=0.15
X252 net3 a_3775_9527# VGND VGND sky130_fd_pr__nfet_01v8 ad=0.0877 pd=0.92 as=0.169 ps=1.82 w=0.65 l=0.15
X253 VGND net13 a_8583_10927# VGND sky130_fd_pr__nfet_01v8 ad=0.0754 pd=0.81 as=0.135 ps=1.56 w=0.52 l=0.15
X254 a_9558_11039# a_9390_11293# VPWR VPWR sky130_fd_pr__pfet_01v8_hvt ad=0.109 pd=1.07 as=0.179 ps=1.26 w=0.75 l=0.15
X255 VPWR VGND VPWR VPWR sky130_fd_pr__pfet_01v8_hvt ad=0.226 pd=2.26 as=0 ps=0 w=0.87 l=1.97
X256 a_9571_8751# _037_ a_9475_8751# VGND sky130_fd_pr__nfet_01v8 ad=0.0798 pd=0.8 as=0.0693 ps=0.75 w=0.42 l=0.15
X257 a_6361_8751# _014_ VPWR VPWR sky130_fd_pr__pfet_01v8_hvt ad=0.0578 pd=0.695 as=0.109 ps=1.36 w=0.42 l=0.15
X258 VPWR a_2472_10901# _069_ VPWR sky130_fd_pr__pfet_01v8_hvt ad=0.172 pd=1.35 as=0.265 ps=2.53 w=1 l=0.15
X259 a_6089_9615# counter\[4\] _071_ VGND sky130_fd_pr__nfet_01v8 ad=0.0877 pd=0.92 as=0.169 ps=1.82 w=0.65 l=0.15
X260 VPWR a_6607_5175# counter\[10\] VPWR sky130_fd_pr__pfet_01v8_hvt ad=0.135 pd=1.27 as=0.26 ps=2.52 w=1 l=0.15
X261 VGND a_1927_5461# a_1934_5761# VGND sky130_fd_pr__nfet_01v8 ad=0.0567 pd=0.69 as=0.109 ps=1.36 w=0.42 l=0.15
X262 a_4035_7637# a_4326_7937# a_4277_8029# VPWR sky130_fd_pr__pfet_01v8_hvt ad=0.0567 pd=0.69 as=0.0882 ps=0.84 w=0.42 l=0.15
X263 VGND a_9034_8484# a_8963_8585# VGND sky130_fd_pr__nfet_01v8 ad=0.121 pd=1.08 as=0.0989 ps=0.995 w=0.64 l=0.15
X264 net5 a_2439_8181# VGND VGND sky130_fd_pr__nfet_01v8 ad=0.0877 pd=0.92 as=0.0877 ps=0.92 w=0.65 l=0.15
X265 _011_ _093_ a_4909_10089# VPWR sky130_fd_pr__pfet_01v8_hvt ad=0.26 pd=2.52 as=0.105 ps=1.21 w=1 l=0.15
X266 _070_ a_1589_5059# VPWR VPWR sky130_fd_pr__pfet_01v8_hvt ad=0.26 pd=2.52 as=0.142 ps=1.33 w=1 l=0.15
X267 a_4434_9572# a_4227_9513# a_4610_9295# VPWR sky130_fd_pr__pfet_01v8_hvt ad=0.0682 pd=0.745 as=0.0766 ps=0.785 w=0.42 l=0.15
X268 VGND VPWR VGND VGND sky130_fd_pr__nfet_01v8 ad=0.143 pd=1.62 as=0 ps=0 w=0.55 l=1.05