* NGSPICE file created from ONES_COUNTER_pex.ext - technology: sky130A

.subckt ONES_COUNTER_pex VGND VPWR clk rst pulse ready ones[0] ones[1] ones[2] ones[3] ones[4] ones[5]
+ ones[6] ones[7] ones[8] ones[9] ones[10]
X0 a_4414_4399# counter\[2\] VGND VGND sky130_fd_pr__nfet_01v8 ad=0.0693 pd=0.75 as=0.17515 ps=1.265 w=0.42 l=0.15
X1 VPWR VGND VPWR VPWR sky130_fd_pr__pfet_01v8_hvt ad=0.2262 pd=2.26 as=142.45384 ps=1.33502k w=0.87 l=1.97
X2 a_8268_2741# net6 a_8397_2767# VPWR sky130_fd_pr__pfet_01v8_hvt ad=0.32 pd=2.64 as=0.165 ps=1.33 w=1 l=0.15
X3 _081_ net3 a_5446_6351# VGND sky130_fd_pr__nfet_01v8 ad=0.091 pd=0.93 as=0.095875 ps=0.945 w=0.65 l=0.15
X4 a_1932_10933# _023_ a_1860_10933# VGND sky130_fd_pr__nfet_01v8 ad=0.05355 pd=0.675 as=0.0441 ps=0.63 w=0.42 l=0.15
X5 a_2419_2767# _045_ VPWR VPWR sky130_fd_pr__pfet_01v8_hvt ad=0.1375 pd=1.275 as=0.15 ps=1.3 w=1 l=0.15
X6 VPWR counter\[4\] a_3847_6727# VPWR sky130_fd_pr__pfet_01v8_hvt ad=0.0567 pd=0.69 as=0.06615 ps=0.735 w=0.42 l=0.15
X7 VPWR VGND VPWR VPWR sky130_fd_pr__pfet_01v8_hvt ad=0.2262 pd=2.26 as=0 ps=0 w=0.87 l=1.05
X8 a_4135_4373# counter\[1\] VPWR VPWR sky130_fd_pr__pfet_01v8_hvt ad=0.07455 pd=0.775 as=0.0777 ps=0.79 w=0.42 l=0.15
X9 a_4616_4399# counter\[1\] a_4510_4399# VGND sky130_fd_pr__nfet_01v8 ad=0.06195 pd=0.715 as=0.0798 ps=0.8 w=0.42 l=0.15
X10 VGND net10 a_9043_5487# VGND sky130_fd_pr__nfet_01v8 ad=0.0754 pd=0.81 as=0.1352 ps=1.56 w=0.52 l=0.15
X11 VGND a_3099_9117# a_3267_9019# VGND sky130_fd_pr__nfet_01v8 ad=0.08775 pd=0.92 as=0.169 ps=1.82 w=0.65 l=0.15
X12 a_9079_6031# a_8381_6037# a_8822_6005# VGND sky130_fd_pr__special_nfet_01v8 ad=0.0684 pd=0.74 as=0.0989 ps=0.995 w=0.36 l=0.15
X13 VGND _069_ _006_ VGND sky130_fd_pr__nfet_01v8 ad=0.169 pd=1.82 as=0.08775 ps=0.92 w=0.65 l=0.15
X14 VGND a_7102_6575# clknet_1_1__leaf_clk VGND sky130_fd_pr__nfet_01v8 ad=0.05775 pd=0.695 as=0.0588 ps=0.7 w=0.42 l=0.15
X15 VGND a_5433_7637# clknet_0_clk VGND sky130_fd_pr__nfet_01v8 ad=0.0588 pd=0.7 as=0.0588 ps=0.7 w=0.42 l=0.15
X16 VPWR _075_ a_10103_9991# VPWR sky130_fd_pr__pfet_01v8_hvt ad=0.0567 pd=0.69 as=0.06615 ps=0.735 w=0.42 l=0.15
X17 VGND VPWR VGND VGND sky130_fd_pr__nfet_01v8 ad=0.143 pd=1.62 as=90.401054 ps=954.98 w=0.55 l=2.89
X18 a_3965_8751# a_3799_8751# VGND VGND sky130_fd_pr__nfet_01v8 ad=0.1092 pd=1.36 as=0.0567 ps=0.69 w=0.42 l=0.15
X19 a_8017_4943# _002_ VPWR VPWR sky130_fd_pr__pfet_01v8_hvt ad=0.05775 pd=0.695 as=0.1092 ps=1.36 w=0.42 l=0.15
X20 _072_ a_10134_10927# VGND VGND sky130_fd_pr__nfet_01v8 ad=0.169 pd=1.82 as=0.25675 ps=1.44 w=0.65 l=0.15
X21 a_7996_9001# counter\[0\] VPWR VPWR sky130_fd_pr__pfet_01v8_hvt ad=0.0441 pd=0.63 as=0.14575 ps=1.335 w=0.42 l=0.15
X22 a_6541_8213# a_6375_8213# VGND VGND sky130_fd_pr__nfet_01v8 ad=0.1092 pd=1.36 as=0.0567 ps=0.69 w=0.42 l=0.15
X23 VPWR a_10103_9514# _013_ VPWR sky130_fd_pr__pfet_01v8_hvt ad=0.11455 pd=1.08 as=0.2054 ps=2.1 w=0.79 l=0.15
X24 a_10337_9839# _075_ a_10265_9839# VGND sky130_fd_pr__nfet_01v8 ad=0.0441 pd=0.63 as=0.0441 ps=0.63 w=0.42 l=0.15
X25 a_7263_7637# net6 a_7744_7663# VGND sky130_fd_pr__nfet_01v8 ad=0.1092 pd=1.36 as=0.06195 ps=0.715 w=0.42 l=0.15
X26 VPWR VGND VPWR VPWR sky130_fd_pr__pfet_01v8_hvt ad=0.2262 pd=2.26 as=0 ps=0 w=0.87 l=2.89
X27 VGND net1 a_9926_8181# VGND sky130_fd_pr__nfet_01v8 ad=0.1092 pd=1.36 as=0.0567 ps=0.69 w=0.42 l=0.15
X28 VGND VPWR VGND VGND sky130_fd_pr__nfet_01v8 ad=0.143 pd=1.62 as=0 ps=0 w=0.55 l=0.59
X29 VPWR clknet_1_1__leaf_clk a_6743_4399# VPWR sky130_fd_pr__pfet_01v8_hvt ad=0.0864 pd=0.91 as=0.1664 ps=1.8 w=0.64 l=0.15
X30 a_1915_5639# a_2011_5461# VPWR VPWR sky130_fd_pr__pfet_01v8_hvt ad=0.27 pd=2.54 as=0.135 ps=1.27 w=1 l=0.15
X31 a_5437_4399# a_5271_4399# VPWR VPWR sky130_fd_pr__pfet_01v8_hvt ad=0.1664 pd=1.8 as=0.0864 ps=0.91 w=0.64 l=0.15
X32 VPWR VGND VPWR VPWR sky130_fd_pr__pfet_01v8_hvt ad=0.2262 pd=2.26 as=0 ps=0 w=0.87 l=1.97
X33 VPWR _043_ a_2790_2767# VPWR sky130_fd_pr__pfet_01v8_hvt ad=0.3125 pd=1.625 as=0.18 ps=1.36 w=1 l=0.15
X34 VGND VPWR VGND VGND sky130_fd_pr__nfet_01v8 ad=0.143 pd=1.62 as=0 ps=0 w=0.55 l=1.05
X35 a_8293_5487# net6 a_8205_5487# VGND sky130_fd_pr__nfet_01v8 ad=0.0798 pd=0.8 as=0.0609 ps=0.71 w=0.42 l=0.15
X36 VGND net3 a_8399_5487# VGND sky130_fd_pr__nfet_01v8 ad=0.196275 pd=1.33 as=0.0693 ps=0.75 w=0.42 l=0.15
X37 VGND VPWR VGND VGND sky130_fd_pr__nfet_01v8 ad=0.143 pd=1.62 as=0 ps=0 w=0.55 l=1.97
X38 a_2668_4405# _024_ a_2596_4405# VGND sky130_fd_pr__nfet_01v8 ad=0.05355 pd=0.675 as=0.0441 ps=0.63 w=0.42 l=0.15
X39 a_7843_5737# _061_ VPWR VPWR sky130_fd_pr__pfet_01v8_hvt ad=0.265 pd=2.53 as=0.14 ps=1.28 w=1 l=0.15
X40 a_9411_7119# net2 _052_ VPWR sky130_fd_pr__pfet_01v8_hvt ad=0.26 pd=2.52 as=0.175 ps=1.35 w=1 l=0.15
X41 ones[0] a_9779_9839# VGND VGND sky130_fd_pr__nfet_01v8 ad=0.1352 pd=1.56 as=0.0754 ps=0.81 w=0.52 l=0.15
X42 a_9117_7663# a_8951_7663# VPWR VPWR sky130_fd_pr__pfet_01v8_hvt ad=0.1664 pd=1.8 as=0.0864 ps=0.91 w=0.64 l=0.15
X43 a_9735_5639# net14 VGND VGND sky130_fd_pr__nfet_01v8 ad=0.169 pd=1.82 as=0.134875 ps=1.065 w=0.65 l=0.15
X44 VPWR _024_ a_2787_6031# VPWR sky130_fd_pr__pfet_01v8_hvt ad=0.15 pd=1.3 as=0.26 ps=2.52 w=1 l=0.15
X45 clknet_0_clk a_5433_7637# VGND VGND sky130_fd_pr__nfet_01v8 ad=0.0588 pd=0.7 as=0.0588 ps=0.7 w=0.42 l=0.15
X46 VPWR a_3847_3463# _033_ VPWR sky130_fd_pr__pfet_01v8_hvt ad=0.142225 pd=1.335 as=0.26 ps=2.52 w=1 l=0.15
X47 a_10199_3285# pulse VPWR VPWR sky130_fd_pr__pfet_01v8_hvt ad=0.265 pd=2.53 as=0.1625 ps=1.325 w=1 l=0.15
X48 VPWR VGND VPWR VPWR sky130_fd_pr__pfet_01v8_hvt ad=0.2262 pd=2.26 as=0 ps=0 w=0.87 l=0.59
X49 a_2325_5263# counter\[9\] a_2229_5263# VGND sky130_fd_pr__nfet_01v8 ad=0.08775 pd=0.92 as=0.10725 ps=0.98 w=0.65 l=0.15
X50 a_2941_6351# _047_ a_2869_6351# VGND sky130_fd_pr__nfet_01v8 ad=0.118625 pd=1.015 as=0.06825 ps=0.86 w=0.65 l=0.15
X51 VPWR counter\[7\] _076_ VPWR sky130_fd_pr__pfet_01v8_hvt ad=0.3 pd=2.6 as=0.165 ps=1.33 w=1 l=0.15
X52 counter\[8\] a_7407_8181# VPWR VPWR sky130_fd_pr__pfet_01v8_hvt ad=0.135 pd=1.27 as=0.135 ps=1.27 w=1 l=0.15
X53 VGND VPWR VGND VGND sky130_fd_pr__nfet_01v8 ad=0.143 pd=1.62 as=0 ps=0 w=0.55 l=1.97
X54 VGND counter\[0\] a_5018_5461# VGND sky130_fd_pr__nfet_01v8 ad=0.1092 pd=1.36 as=0.1092 ps=1.36 w=0.42 l=0.15
X55 VGND VPWR VGND VGND sky130_fd_pr__nfet_01v8 ad=0.143 pd=1.62 as=0 ps=0 w=0.55 l=4.73
X56 VPWR a_9815_8029# a_9983_7931# VPWR sky130_fd_pr__pfet_01v8_hvt ad=0.135 pd=1.27 as=0.27 ps=2.54 w=1 l=0.15
X57 VPWR VGND VPWR VPWR sky130_fd_pr__pfet_01v8_hvt ad=0.2262 pd=2.26 as=0 ps=0 w=0.87 l=0.59
X58 a_10199_2197# rst VGND VGND sky130_fd_pr__nfet_01v8 ad=0.1113 pd=1.37 as=0.06825 ps=0.745 w=0.42 l=0.15
X59 VGND VPWR VGND VGND sky130_fd_pr__nfet_01v8 ad=0.143 pd=1.62 as=0 ps=0 w=0.55 l=4.73
X60 VPWR a_4227_9513# a_4234_9417# VPWR sky130_fd_pr__pfet_01v8_hvt ad=0.0864 pd=0.91 as=0.1664 ps=1.8 w=0.64 l=0.15
X61 a_9079_6031# a_8215_6037# a_8822_6005# VPWR sky130_fd_pr__pfet_01v8_hvt ad=0.0567 pd=0.69 as=0.1095 ps=1.075 w=0.42 l=0.15
X62 VGND a_8367_7337# a_8374_7241# VGND sky130_fd_pr__nfet_01v8 ad=0.0567 pd=0.69 as=0.1092 ps=1.36 w=0.42 l=0.15
X63 a_6324_10029# _064_ VPWR VPWR sky130_fd_pr__pfet_01v8_hvt ad=0.1113 pd=1.37 as=0.1113 ps=1.37 w=0.42 l=0.15
X64 VPWR VGND VPWR VPWR sky130_fd_pr__pfet_01v8_hvt ad=0.2262 pd=2.26 as=0 ps=0 w=0.87 l=1.97
X65 VPWR a_3099_9117# a_3267_9019# VPWR sky130_fd_pr__pfet_01v8_hvt ad=0.135 pd=1.27 as=0.27 ps=2.54 w=1 l=0.15
X66 a_8767_10749# counter\[6\] VPWR VPWR sky130_fd_pr__pfet_01v8_hvt ad=0.0588 pd=0.7 as=0.0777 ps=0.79 w=0.42 l=0.15
X67 VPWR VGND VPWR VPWR sky130_fd_pr__pfet_01v8_hvt ad=0.2262 pd=2.26 as=0 ps=0 w=0.87 l=1.05
X68 clknet_1_0__leaf_clk a_3593_8181# VGND VGND sky130_fd_pr__nfet_01v8 ad=0.0588 pd=0.7 as=0.0588 ps=0.7 w=0.42 l=0.15
X69 a_3965_7125# a_3799_7125# VPWR VPWR sky130_fd_pr__pfet_01v8_hvt ad=0.1664 pd=1.8 as=0.0864 ps=0.91 w=0.64 l=0.15
X70 VPWR net9 a_9739_6005# VPWR sky130_fd_pr__pfet_01v8_hvt ad=0.1092 pd=1.36 as=0.0735 ps=0.77 w=0.42 l=0.15
X71 a_7323_8207# a_6541_8213# a_7239_8207# VPWR sky130_fd_pr__pfet_01v8_hvt ad=0.0882 pd=0.84 as=0.0567 ps=0.69 w=0.42 l=0.15
X72 a_9117_6575# a_8951_6575# VPWR VPWR sky130_fd_pr__pfet_01v8_hvt ad=0.1664 pd=1.8 as=0.0864 ps=0.91 w=0.64 l=0.15
X73 VPWR VGND VPWR VPWR sky130_fd_pr__pfet_01v8_hvt ad=0.2262 pd=2.26 as=0 ps=0 w=0.87 l=2.89
X74 _068_ a_8767_10749# VPWR VPWR sky130_fd_pr__pfet_01v8_hvt ad=0.26 pd=2.52 as=0.31245 ps=1.68 w=1 l=0.15
X75 VPWR a_7102_6575# clknet_1_1__leaf_clk VPWR sky130_fd_pr__pfet_01v8_hvt ad=0.14 pd=1.28 as=0.14 ps=1.28 w=1 l=0.15
X76 a_2593_2223# _053_ a_2511_2223# VGND sky130_fd_pr__nfet_01v8 ad=0.0441 pd=0.63 as=0.1092 ps=1.36 w=0.42 l=0.15
X77 VPWR a_3593_8181# clknet_1_0__leaf_clk VPWR sky130_fd_pr__pfet_01v8_hvt ad=0.1375 pd=1.275 as=0.14 ps=1.28 w=1 l=0.15
X78 VGND a_4406_7093# a_4364_7497# VGND sky130_fd_pr__nfet_01v8 ad=0.12095 pd=1.085 as=0.0696 ps=0.765 w=0.42 l=0.15
X79 VPWR a_4491_6263# _057_ VPWR sky130_fd_pr__pfet_01v8_hvt ad=0.142225 pd=1.335 as=0.26 ps=2.52 w=1 l=0.15
X80 VPWR counter\[8\] a_3476_7351# VPWR sky130_fd_pr__pfet_01v8_hvt ad=0.1092 pd=1.36 as=0.1087 ps=1.36 w=0.42 l=0.15
X81 _012_ _085_ a_1505_7119# VPWR sky130_fd_pr__pfet_01v8_hvt ad=0.26 pd=2.52 as=0.105 ps=1.21 w=1 l=0.15
X82 VGND a_8268_2741# _023_ VGND sky130_fd_pr__nfet_01v8 ad=0.112125 pd=0.995 as=0.17225 ps=1.83 w=0.65 l=0.15
X83 a_9558_6687# a_9390_6941# VPWR VPWR sky130_fd_pr__pfet_01v8_hvt ad=0.1095 pd=1.075 as=0.178875 ps=1.26 w=0.75 l=0.15
X84 VGND VPWR VGND VGND sky130_fd_pr__nfet_01v8 ad=0.143 pd=1.62 as=0 ps=0 w=0.55 l=2.89
X85 a_8355_4074# _048_ VPWR VPWR sky130_fd_pr__pfet_01v8_hvt ad=0.2054 pd=2.1 as=0.11455 ps=1.08 w=0.79 l=0.15
X86 a_7987_7351# a_8083_7351# VGND VGND sky130_fd_pr__nfet_01v8 ad=0.169 pd=1.82 as=0.08775 ps=0.92 w=0.65 l=0.15
X87 VGND a_9815_8029# a_9983_7931# VGND sky130_fd_pr__nfet_01v8 ad=0.08775 pd=0.92 as=0.169 ps=1.82 w=0.65 l=0.15
X88 VGND net12 _044_ VGND sky130_fd_pr__nfet_01v8 ad=0.169 pd=1.82 as=0.08775 ps=0.92 w=0.65 l=0.15
X89 VPWR a_8075_3285# a_7711_3463# VPWR sky130_fd_pr__pfet_01v8_hvt ad=0.0567 pd=0.69 as=0.0987 ps=0.89 w=0.42 l=0.15
X90 VPWR clknet_1_1__leaf_clk a_6375_8213# VPWR sky130_fd_pr__pfet_01v8_hvt ad=0.0864 pd=0.91 as=0.1664 ps=1.8 w=0.64 l=0.15
X91 VGND VPWR VGND VGND sky130_fd_pr__nfet_01v8 ad=0.143 pd=1.62 as=0 ps=0 w=0.55 l=2.89
X92 VPWR net14 _080_ VPWR sky130_fd_pr__pfet_01v8_hvt ad=0.26 pd=2.52 as=0.135 ps=1.27 w=1 l=0.15
X93 VPWR net14 a_9963_4399# VPWR sky130_fd_pr__pfet_01v8_hvt ad=0.11455 pd=1.08 as=0.2054 ps=2.1 w=0.79 l=0.15
X94 a_5496_9269# _024_ VGND VGND sky130_fd_pr__nfet_01v8 ad=0.1113 pd=1.37 as=0.101875 ps=0.99 w=0.42 l=0.15
X95 VPWR _053_ a_6835_5853# VPWR sky130_fd_pr__pfet_01v8_hvt ad=0.1113 pd=1.37 as=0.1113 ps=1.37 w=0.42 l=0.15
X96 VGND counter\[2\] a_9122_2223# VGND sky130_fd_pr__nfet_01v8 ad=0.25675 pd=1.44 as=0.089375 ps=0.925 w=0.65 l=0.15
X97 VGND a_4894_6549# a_4823_6575# VGND sky130_fd_pr__nfet_01v8 ad=0.12095 pd=1.085 as=0.0989 ps=0.995 w=0.64 l=0.15
X98 a_4798_5737# a_5018_5461# _050_ VPWR sky130_fd_pr__pfet_01v8_hvt ad=0.26 pd=2.52 as=0.135 ps=1.27 w=1 l=0.15
X99 a_6612_3829# _068_ VGND VGND sky130_fd_pr__nfet_01v8 ad=0.1092 pd=1.36 as=0.097 ps=0.975 w=0.42 l=0.15
X100 a_7343_7351# a_7616_7351# VPWR VPWR sky130_fd_pr__pfet_01v8_hvt ad=0.1085 pd=1.36 as=0.0567 ps=0.69 w=0.42 l=0.15
X101 VGND VPWR VGND VGND sky130_fd_pr__nfet_01v8 ad=0.143 pd=1.62 as=0 ps=0 w=0.55 l=1.05
X102 a_8397_3087# _083_ VGND VGND sky130_fd_pr__nfet_01v8 ad=0.104 pd=0.97 as=0.112125 ps=0.995 w=0.65 l=0.15
X103 a_1915_5639# a_2011_5461# VGND VGND sky130_fd_pr__nfet_01v8 ad=0.169 pd=1.82 as=0.08775 ps=0.92 w=0.65 l=0.15
X104 a_5625_4399# _016_ VPWR VPWR sky130_fd_pr__pfet_01v8_hvt ad=0.05775 pd=0.695 as=0.1092 ps=1.36 w=0.42 l=0.15
X105 a_4406_8863# a_4238_9117# VGND VGND sky130_fd_pr__nfet_01v8 ad=0.0989 pd=0.995 as=0.12095 ps=1.085 w=0.64 l=0.15
X106 _024_ net14 VGND VGND sky130_fd_pr__nfet_01v8 ad=0.08775 pd=0.92 as=0.08775 ps=0.92 w=0.65 l=0.15
X107 VPWR a_9247_6005# a_9163_6031# VPWR sky130_fd_pr__pfet_01v8_hvt ad=0.1113 pd=1.37 as=0.0882 ps=0.84 w=0.42 l=0.15
X108 VPWR clknet_1_0__leaf_clk a_3799_7663# VPWR sky130_fd_pr__pfet_01v8_hvt ad=0.0864 pd=0.91 as=0.1664 ps=1.8 w=0.64 l=0.15
X109 VGND VPWR VGND VGND sky130_fd_pr__nfet_01v8 ad=0.143 pd=1.62 as=0 ps=0 w=0.55 l=1.05
X110 VPWR net2 a_2971_4399# VPWR sky130_fd_pr__pfet_01v8_hvt ad=0.0567 pd=0.69 as=0.1092 ps=1.36 w=0.42 l=0.15
X111 _014_ a_2776_7119# VGND VGND sky130_fd_pr__nfet_01v8 ad=0.169 pd=1.82 as=0.169 ps=1.82 w=0.65 l=0.15
X112 VGND VPWR VGND VGND sky130_fd_pr__nfet_01v8 ad=0.143 pd=1.62 as=0 ps=0 w=0.55 l=1.05
X113 a_9815_6941# a_9117_6575# a_9558_6687# VGND sky130_fd_pr__special_nfet_01v8 ad=0.0684 pd=0.74 as=0.0989 ps=0.995 w=0.36 l=0.15
X114 VGND a_3819_4917# net3 VGND sky130_fd_pr__nfet_01v8 ad=0.169 pd=1.82 as=0.08775 ps=0.92 w=0.65 l=0.15
X115 _058_ counter\[1\] VPWR VPWR sky130_fd_pr__pfet_01v8_hvt ad=0.135 pd=1.27 as=0.165 ps=1.33 w=1 l=0.15
X116 a_1559_2473# counter\[8\] VPWR VPWR sky130_fd_pr__pfet_01v8_hvt ad=0.16 pd=1.32 as=0.165 ps=1.33 w=1 l=0.15
X117 a_9739_6005# _028_ VPWR VPWR sky130_fd_pr__pfet_01v8_hvt ad=0.0588 pd=0.7 as=0.31245 ps=1.68 w=0.42 l=0.15
X118 _000_ a_2879_8207# VGND VGND sky130_fd_pr__nfet_01v8 ad=0.1352 pd=1.56 as=0.0754 ps=0.81 w=0.52 l=0.15
X119 VPWR a_5050_4917# a_4977_4943# VPWR sky130_fd_pr__pfet_01v8_hvt ad=0.178875 pd=1.26 as=0.07665 ps=0.785 w=0.42 l=0.15
X120 VPWR _033_ a_5271_8751# VPWR sky130_fd_pr__pfet_01v8_hvt ad=0.11455 pd=1.08 as=0.2054 ps=2.1 w=0.79 l=0.15
X121 VGND a_5043_4564# _015_ VGND sky130_fd_pr__nfet_01v8 ad=0.0754 pd=0.81 as=0.1352 ps=1.56 w=0.52 l=0.15
X122 a_7515_6031# a_6651_6037# a_7258_6005# VPWR sky130_fd_pr__pfet_01v8_hvt ad=0.0567 pd=0.69 as=0.1095 ps=1.075 w=0.42 l=0.15
X123 a_2409_4445# _035_ VGND VGND sky130_fd_pr__nfet_01v8 ad=0.10785 pd=1.36 as=0.1092 ps=1.36 w=0.42 l=0.15
X124 VGND a_5475_4917# a_5433_5321# VGND sky130_fd_pr__nfet_01v8 ad=0.1092 pd=1.36 as=0.066 ps=0.745 w=0.42 l=0.15
X125 VPWR VGND VPWR VPWR sky130_fd_pr__pfet_01v8_hvt ad=0.2262 pd=2.26 as=0 ps=0 w=0.87 l=1.05
X126 a_4153_7119# _015_ VGND VGND sky130_fd_pr__nfet_01v8 ad=0.0813 pd=0.83 as=0.1092 ps=1.36 w=0.42 l=0.15
X127 VGND VPWR VGND VGND sky130_fd_pr__nfet_01v8 ad=0.143 pd=1.62 as=0 ps=0 w=0.55 l=0.59
X128 VGND VPWR VGND VGND sky130_fd_pr__nfet_01v8 ad=0.143 pd=1.62 as=0 ps=0 w=0.55 l=4.73
X129 VPWR a_6979_10901# _007_ VPWR sky130_fd_pr__pfet_01v8_hvt ad=0.3275 pd=1.655 as=0.28 ps=2.56 w=1 l=0.15
X130 VPWR VGND VPWR VPWR sky130_fd_pr__pfet_01v8_hvt ad=0.2262 pd=2.26 as=0 ps=0 w=0.87 l=4.73
X131 VGND a_9735_5639# _085_ VGND sky130_fd_pr__nfet_01v8 ad=0.112125 pd=0.995 as=0.169 ps=1.82 w=0.65 l=0.15
X132 a_9117_6575# a_8951_6575# VGND VGND sky130_fd_pr__nfet_01v8 ad=0.1092 pd=1.36 as=0.0567 ps=0.69 w=0.42 l=0.15
X133 a_9815_6941# a_8951_6575# a_9558_6687# VPWR sky130_fd_pr__pfet_01v8_hvt ad=0.0567 pd=0.69 as=0.1095 ps=1.075 w=0.42 l=0.15
X134 VGND clknet_1_0__leaf_clk a_3799_7125# VGND sky130_fd_pr__nfet_01v8 ad=0.0567 pd=0.69 as=0.1092 ps=1.36 w=0.42 l=0.15
X135 a_5513_10089# counter\[3\] VGND VGND sky130_fd_pr__nfet_01v8 ad=0.10725 pd=0.98 as=0.208 ps=1.94 w=0.65 l=0.15
X136 a_8921_7497# a_8374_7241# a_8574_7396# VPWR sky130_fd_pr__pfet_01v8_hvt ad=0.05775 pd=0.695 as=0.06825 ps=0.745 w=0.42 l=0.15
X137 net11 a_9983_6843# VPWR VPWR sky130_fd_pr__pfet_01v8_hvt ad=0.135 pd=1.27 as=0.135 ps=1.27 w=1 l=0.15
X138 VPWR a_7711_3463# _051_ VPWR sky130_fd_pr__pfet_01v8_hvt ad=0.14075 pd=1.325 as=0.26 ps=2.52 w=1 l=0.15
X139 a_2676_2767# _039_ a_2419_2767# VPWR sky130_fd_pr__pfet_01v8_hvt ad=0.21 pd=1.42 as=0.1375 ps=1.275 w=1 l=0.15
X140 a_4609_4949# a_4443_4949# VPWR VPWR sky130_fd_pr__pfet_01v8_hvt ad=0.1664 pd=1.8 as=0.0864 ps=0.91 w=0.64 l=0.15
X141 a_3847_9527# a_3943_9527# VGND VGND sky130_fd_pr__nfet_01v8 ad=0.169 pd=1.82 as=0.08775 ps=0.92 w=0.65 l=0.15
X142 _083_ a_9926_8181# VGND VGND sky130_fd_pr__nfet_01v8 ad=0.08775 pd=0.92 as=0.169 ps=1.82 w=0.65 l=0.15
X143 a_2787_6031# _047_ VPWR VPWR sky130_fd_pr__pfet_01v8_hvt ad=0.1375 pd=1.275 as=0.15 ps=1.3 w=1 l=0.15
X144 a_6324_10029# _064_ VGND VGND sky130_fd_pr__nfet_01v8 ad=0.1113 pd=1.37 as=0.101875 ps=0.99 w=0.42 l=0.15
X145 VPWR VGND VPWR VPWR sky130_fd_pr__pfet_01v8_hvt ad=0.2262 pd=2.26 as=0 ps=0 w=0.87 l=4.73
X146 VPWR net9 a_10239_8751# VPWR sky130_fd_pr__pfet_01v8_hvt ad=0.11455 pd=1.08 as=0.2054 ps=2.1 w=0.79 l=0.15
X147 VGND net12 a_6060_6549# VGND sky130_fd_pr__nfet_01v8 ad=0.208 pd=1.94 as=0.10725 ps=0.98 w=0.65 l=0.15
X148 clknet_1_0__leaf_clk a_3593_8181# VGND VGND sky130_fd_pr__nfet_01v8 ad=0.0588 pd=0.7 as=0.05775 ps=0.695 w=0.42 l=0.15
X149 VGND a_3300_9269# _053_ VGND sky130_fd_pr__nfet_01v8 ad=0.097 pd=0.975 as=0.08775 ps=0.92 w=0.65 l=0.15
X150 VPWR a_1915_5639# counter\[10\] VPWR sky130_fd_pr__pfet_01v8_hvt ad=0.135 pd=1.27 as=0.26 ps=2.52 w=1 l=0.15
X151 VPWR VGND VPWR VPWR sky130_fd_pr__pfet_01v8_hvt ad=0.2262 pd=2.26 as=0 ps=0 w=0.87 l=4.73
X152 VPWR VGND VPWR VPWR sky130_fd_pr__pfet_01v8_hvt ad=0.2262 pd=2.26 as=0 ps=0 w=0.87 l=0.59
X153 VGND _057_ a_1775_4399# VGND sky130_fd_pr__nfet_01v8 ad=0.0754 pd=0.81 as=0.1352 ps=1.56 w=0.52 l=0.15
X154 a_3521_3971# _053_ VPWR VPWR sky130_fd_pr__pfet_01v8_hvt ad=0.074375 pd=0.815 as=0.0567 ps=0.69 w=0.42 l=0.15
X155 a_4143_6397# _086_ a_4047_6397# VGND sky130_fd_pr__nfet_01v8 ad=0.0798 pd=0.8 as=0.0693 ps=0.75 w=0.42 l=0.15
X156 _020_ a_2419_2767# VPWR VPWR sky130_fd_pr__pfet_01v8_hvt ad=0.26 pd=2.52 as=0.3125 ps=1.625 w=1 l=0.15
X157 a_9868_5487# net1 VGND VGND sky130_fd_pr__nfet_01v8 ad=0.125125 pd=1.035 as=0.112125 ps=0.995 w=0.65 l=0.15
X158 VPWR VGND VPWR VPWR sky130_fd_pr__pfet_01v8_hvt ad=0.2262 pd=2.26 as=0 ps=0 w=0.87 l=1.05
X159 _059_ a_9122_2223# VPWR VPWR sky130_fd_pr__pfet_01v8_hvt ad=0.26 pd=2.52 as=0.26 ps=2.52 w=1 l=0.15
X160 VPWR net12 _040_ VPWR sky130_fd_pr__pfet_01v8_hvt ad=0.3 pd=2.6 as=0.165 ps=1.33 w=1 l=0.15
X161 VGND a_5433_7637# clknet_0_clk VGND sky130_fd_pr__nfet_01v8 ad=0.0588 pd=0.7 as=0.0588 ps=0.7 w=0.42 l=0.15
X162 VPWR _080_ a_5363_6031# VPWR sky130_fd_pr__pfet_01v8_hvt ad=0.1475 pd=1.295 as=0.265 ps=2.53 w=1 l=0.15
X163 a_3867_9813# a_4035_9813# VGND VGND sky130_fd_pr__nfet_01v8 ad=0.169 pd=1.82 as=0.08775 ps=0.92 w=0.65 l=0.15
X164 a_10103_9991# _076_ VPWR VPWR sky130_fd_pr__pfet_01v8_hvt ad=0.06615 pd=0.735 as=0.142225 ps=1.335 w=0.42 l=0.15
X165 VGND a_10103_9514# _013_ VGND sky130_fd_pr__nfet_01v8 ad=0.0754 pd=0.81 as=0.1352 ps=1.56 w=0.52 l=0.15
X166 VPWR VGND VPWR VPWR sky130_fd_pr__pfet_01v8_hvt ad=0.2262 pd=2.26 as=0 ps=0 w=0.87 l=0.59
X167 VGND VPWR VGND VGND sky130_fd_pr__nfet_01v8 ad=0.143 pd=1.62 as=0 ps=0 w=0.55 l=4.73
X168 a_2849_5487# a_2295_5461# a_2502_5461# VGND sky130_fd_pr__special_nfet_01v8 ad=0.0813 pd=0.83 as=0.0621 ps=0.705 w=0.36 l=0.15
X169 VGND a_7531_2741# _047_ VGND sky130_fd_pr__nfet_01v8 ad=0.160875 pd=1.145 as=0.169 ps=1.82 w=0.65 l=0.15
X170 VGND _033_ a_5271_8751# VGND sky130_fd_pr__nfet_01v8 ad=0.0754 pd=0.81 as=0.1352 ps=1.56 w=0.52 l=0.15
X171 VPWR a_7683_6005# a_7599_6031# VPWR sky130_fd_pr__pfet_01v8_hvt ad=0.1113 pd=1.37 as=0.0882 ps=0.84 w=0.42 l=0.15
X172 net11 a_9983_6843# VGND VGND sky130_fd_pr__nfet_01v8 ad=0.08775 pd=0.92 as=0.08775 ps=0.92 w=0.65 l=0.15
X173 VPWR _069_ a_1559_2473# VPWR sky130_fd_pr__pfet_01v8_hvt ad=0.1725 pd=1.345 as=0.16 ps=1.32 w=1 l=0.15
X174 VPWR a_3593_8181# clknet_1_0__leaf_clk VPWR sky130_fd_pr__pfet_01v8_hvt ad=0.14 pd=1.28 as=0.14 ps=1.28 w=1 l=0.15
X175 a_9201_4399# net11 a_9117_4399# VGND sky130_fd_pr__nfet_01v8 ad=0.10725 pd=0.98 as=0.08775 ps=0.92 w=0.65 l=0.15
X176 VPWR _054_ a_2879_8207# VPWR sky130_fd_pr__pfet_01v8_hvt ad=0.11455 pd=1.08 as=0.2054 ps=2.1 w=0.79 l=0.15
X177 a_7090_6031# a_6651_6037# a_7005_6031# VGND sky130_fd_pr__special_nfet_01v8 ad=0.0621 pd=0.705 as=0.0813 ps=0.83 w=0.36 l=0.15
X178 a_4403_6549# a_4687_6549# a_4622_6575# VGND sky130_fd_pr__special_nfet_01v8 ad=0.0684 pd=0.74 as=0.066 ps=0.745 w=0.36 l=0.15
X179 a_4663_9117# a_3799_8751# a_4406_8863# VPWR sky130_fd_pr__pfet_01v8_hvt ad=0.0567 pd=0.69 as=0.1095 ps=1.075 w=0.42 l=0.15
X180 a_2401_8751# a_2235_8751# VPWR VPWR sky130_fd_pr__pfet_01v8_hvt ad=0.1664 pd=1.8 as=0.0864 ps=0.91 w=0.64 l=0.15
X181 a_8265_10721# net8 VGND VGND sky130_fd_pr__nfet_01v8 ad=0.0567 pd=0.69 as=0.1118 ps=1.04 w=0.42 l=0.15
X182 a_2678_5853# a_2431_5487# VPWR VPWR sky130_fd_pr__pfet_01v8_hvt ad=0.07665 pd=0.785 as=0.178875 ps=1.26 w=0.42 l=0.15
X183 VPWR a_9983_6843# a_9899_6941# VPWR sky130_fd_pr__pfet_01v8_hvt ad=0.1113 pd=1.37 as=0.0882 ps=0.84 w=0.42 l=0.15
X184 a_2401_7663# a_2235_7663# VGND VGND sky130_fd_pr__nfet_01v8 ad=0.1092 pd=1.36 as=0.0567 ps=0.69 w=0.42 l=0.15
X185 VGND VPWR VGND VGND sky130_fd_pr__nfet_01v8 ad=0.143 pd=1.62 as=0 ps=0 w=0.55 l=0.59
X186 a_2511_2223# _058_ VPWR VPWR sky130_fd_pr__pfet_01v8_hvt ad=0.06615 pd=0.735 as=0.0567 ps=0.69 w=0.42 l=0.15
X187 a_8863_8527# _076_ VGND VGND sky130_fd_pr__nfet_01v8 ad=0.143 pd=1.09 as=0.105625 ps=0.975 w=0.65 l=0.15
X188 VGND a_6303_4667# a_6261_4399# VGND sky130_fd_pr__nfet_01v8 ad=0.1092 pd=1.36 as=0.066 ps=0.745 w=0.42 l=0.15
X189 VPWR net13 a_7749_2767# VPWR sky130_fd_pr__pfet_01v8_hvt ad=0.135 pd=1.27 as=0.135 ps=1.27 w=1 l=0.15
X190 a_4491_6263# _053_ VPWR VPWR sky130_fd_pr__pfet_01v8_hvt ad=0.1092 pd=1.36 as=0.0567 ps=0.69 w=0.42 l=0.15
X191 clknet_1_1__leaf_clk a_7102_6575# VPWR VPWR sky130_fd_pr__pfet_01v8_hvt ad=0.14 pd=1.28 as=0.14 ps=1.28 w=1 l=0.15
X192 a_3847_6727# counter\[5\] a_4081_6575# VGND sky130_fd_pr__nfet_01v8 ad=0.1092 pd=1.36 as=0.0441 ps=0.63 w=0.42 l=0.15
X193 VGND a_5433_7637# clknet_0_clk VGND sky130_fd_pr__nfet_01v8 ad=0.0588 pd=0.7 as=0.0588 ps=0.7 w=0.42 l=0.15
X194 a_5613_7439# counter\[9\] a_5529_7439# VGND sky130_fd_pr__nfet_01v8 ad=0.10725 pd=0.98 as=0.08775 ps=0.92 w=0.65 l=0.15
X195 a_2007_7828# _042_ VPWR VPWR sky130_fd_pr__pfet_01v8_hvt ad=0.2054 pd=2.1 as=0.11455 ps=1.08 w=0.79 l=0.15
X196 a_4406_8863# a_4238_9117# VPWR VPWR sky130_fd_pr__pfet_01v8_hvt ad=0.1095 pd=1.075 as=0.178875 ps=1.26 w=0.75 l=0.15
X197 a_2589_7663# _004_ VPWR VPWR sky130_fd_pr__pfet_01v8_hvt ad=0.05775 pd=0.695 as=0.1092 ps=1.36 w=0.42 l=0.15
X198 VGND a_4589_3829# _029_ VGND sky130_fd_pr__nfet_01v8 ad=0.25675 pd=1.44 as=0.169 ps=1.82 w=0.65 l=0.15
X199 VPWR a_5433_7637# clknet_0_clk VPWR sky130_fd_pr__pfet_01v8_hvt ad=0.1375 pd=1.275 as=0.14 ps=1.28 w=1 l=0.15
X200 a_4491_6263# _053_ a_4725_6397# VGND sky130_fd_pr__nfet_01v8 ad=0.1092 pd=1.36 as=0.0441 ps=0.63 w=0.42 l=0.15
X201 VGND a_3847_6727# _065_ VGND sky130_fd_pr__nfet_01v8 ad=0.13165 pd=1.14 as=0.169 ps=1.82 w=0.65 l=0.15
X202 VPWR VGND VPWR VPWR sky130_fd_pr__pfet_01v8_hvt ad=0.2262 pd=2.26 as=0 ps=0 w=0.87 l=0.59
X203 VPWR VGND VPWR VPWR sky130_fd_pr__pfet_01v8_hvt ad=0.2262 pd=2.26 as=0 ps=0 w=0.87 l=4.73
X204 VPWR _053_ a_10136_4943# VPWR sky130_fd_pr__pfet_01v8_hvt ad=0.3275 pd=1.655 as=0.195 ps=1.39 w=1 l=0.15
X205 _075_ a_1465_2473# VPWR VPWR sky130_fd_pr__pfet_01v8_hvt ad=0.265 pd=2.53 as=0.1725 ps=1.345 w=1 l=0.15
X206 VPWR VGND VPWR VPWR sky130_fd_pr__pfet_01v8_hvt ad=0.2262 pd=2.26 as=0 ps=0 w=0.87 l=4.73
X207 a_9815_8029# a_8951_7663# a_9558_7775# VPWR sky130_fd_pr__pfet_01v8_hvt ad=0.0567 pd=0.69 as=0.1095 ps=1.075 w=0.42 l=0.15
X208 a_10134_10927# counter\[8\] a_9965_11177# VPWR sky130_fd_pr__pfet_01v8_hvt ad=0.26 pd=2.52 as=0.1375 ps=1.275 w=1 l=0.15
X209 _002_ a_6375_2767# VPWR VPWR sky130_fd_pr__pfet_01v8_hvt ad=0.2054 pd=2.1 as=0.11455 ps=1.08 w=0.79 l=0.15
X210 a_3203_7351# a_3476_7351# VPWR VPWR sky130_fd_pr__pfet_01v8_hvt ad=0.1085 pd=1.36 as=0.0567 ps=0.69 w=0.42 l=0.15
X211 a_6093_8527# counter\[8\] a_5997_8527# VGND sky130_fd_pr__nfet_01v8 ad=0.08775 pd=0.92 as=0.10725 ps=0.98 w=0.65 l=0.15
X212 VGND VPWR VGND VGND sky130_fd_pr__nfet_01v8 ad=0.143 pd=1.62 as=0 ps=0 w=0.55 l=0.59
X213 a_7216_6409# a_6817_6037# a_7090_6031# VGND sky130_fd_pr__special_nfet_01v8 ad=0.0696 pd=0.765 as=0.0621 ps=0.705 w=0.36 l=0.15
X214 VGND net9 a_10239_8751# VGND sky130_fd_pr__nfet_01v8 ad=0.0754 pd=0.81 as=0.1352 ps=1.56 w=0.52 l=0.15
X215 VGND a_6579_9019# counter\[1\] VGND sky130_fd_pr__nfet_01v8 ad=0.169 pd=1.82 as=0.08775 ps=0.92 w=0.65 l=0.15
X216 a_4511_3087# _080_ a_4415_3087# VGND sky130_fd_pr__nfet_01v8 ad=0.104 pd=0.97 as=0.10725 ps=0.98 w=0.65 l=0.15
X217 a_8013_3087# net11 a_7917_3087# VGND sky130_fd_pr__nfet_01v8 ad=0.10725 pd=0.98 as=0.10725 ps=0.98 w=0.65 l=0.15
X218 counter\[8\] a_7407_8181# VGND VGND sky130_fd_pr__nfet_01v8 ad=0.08775 pd=0.92 as=0.08775 ps=0.92 w=0.65 l=0.15
X219 VGND a_3593_8181# clknet_1_0__leaf_clk VGND sky130_fd_pr__nfet_01v8 ad=0.0588 pd=0.7 as=0.0588 ps=0.7 w=0.42 l=0.15
X220 VPWR VGND VPWR VPWR sky130_fd_pr__pfet_01v8_hvt ad=0.2262 pd=2.26 as=0 ps=0 w=0.87 l=0.59
X221 a_3847_3463# a_4120_3291# a_4078_3317# VGND sky130_fd_pr__nfet_01v8 ad=0.107825 pd=1.36 as=0.0441 ps=0.63 w=0.42 l=0.15
X222 VGND a_7987_7351# net6 VGND sky130_fd_pr__nfet_01v8 ad=0.08775 pd=0.92 as=0.169 ps=1.82 w=0.65 l=0.15
X223 _080_ net14 VGND VGND sky130_fd_pr__nfet_01v8 ad=0.08775 pd=0.92 as=0.169 ps=1.82 w=0.65 l=0.15
X224 VPWR VGND VPWR VPWR sky130_fd_pr__pfet_01v8_hvt ad=0.2262 pd=2.26 as=0 ps=0 w=0.87 l=0.59
X225 a_1489_4649# counter\[6\] VPWR VPWR sky130_fd_pr__pfet_01v8_hvt ad=0.105 pd=1.21 as=0.26 ps=2.52 w=1 l=0.15
X226 VPWR _083_ a_4807_3855# VPWR sky130_fd_pr__pfet_01v8_hvt ad=0.14 pd=1.28 as=0.1375 ps=1.275 w=1 l=0.15
X227 VGND _037_ a_2668_4405# VGND sky130_fd_pr__nfet_01v8 ad=0.122275 pd=1.08 as=0.05355 ps=0.675 w=0.42 l=0.15
X228 a_6537_8751# a_5547_8751# a_6411_9117# VGND sky130_fd_pr__special_nfet_01v8 ad=0.066 pd=0.745 as=0.0684 ps=0.74 w=0.36 l=0.15
X229 a_8803_9295# a_8105_9301# a_8546_9269# VGND sky130_fd_pr__special_nfet_01v8 ad=0.0684 pd=0.74 as=0.0989 ps=0.995 w=0.36 l=0.15
X230 VGND net4 _046_ VGND sky130_fd_pr__nfet_01v8 ad=0.169 pd=1.82 as=0.08775 ps=0.92 w=0.65 l=0.15
X231 VPWR VGND VPWR VPWR sky130_fd_pr__pfet_01v8_hvt ad=0.2262 pd=2.26 as=0 ps=0 w=0.87 l=1.05
X232 a_7845_3311# counter\[4\] VGND VGND sky130_fd_pr__nfet_01v8 ad=0.0609 pd=0.71 as=0.1034 ps=1 w=0.42 l=0.15
X233 VPWR clknet_0_clk a_7102_6575# VPWR sky130_fd_pr__pfet_01v8_hvt ad=0.14 pd=1.28 as=0.14 ps=1.28 w=1 l=0.15
X234 clknet_0_clk a_5433_7637# VGND VGND sky130_fd_pr__nfet_01v8 ad=0.0588 pd=0.7 as=0.0588 ps=0.7 w=0.42 l=0.15
X235 VPWR VGND VPWR VPWR sky130_fd_pr__pfet_01v8_hvt ad=0.2262 pd=2.26 as=0 ps=0 w=0.87 l=0.59
X236 VPWR a_4831_9019# a_4747_9117# VPWR sky130_fd_pr__pfet_01v8_hvt ad=0.1113 pd=1.37 as=0.0882 ps=0.84 w=0.42 l=0.15
X237 a_2849_5487# a_2302_5761# a_2502_5461# VPWR sky130_fd_pr__pfet_01v8_hvt ad=0.05775 pd=0.695 as=0.06825 ps=0.745 w=0.42 l=0.15
X238 a_2230_5487# a_1915_5639# VGND VGND sky130_fd_pr__nfet_01v8 ad=0.066 pd=0.745 as=0.1092 ps=1.36 w=0.42 l=0.15
X239 VGND a_1915_5639# counter\[10\] VGND sky130_fd_pr__nfet_01v8 ad=0.08775 pd=0.92 as=0.169 ps=1.82 w=0.65 l=0.15
X240 a_8945_8207# _078_ VPWR VPWR sky130_fd_pr__pfet_01v8_hvt ad=0.1625 pd=1.325 as=0.26 ps=2.52 w=1 l=0.15
X241 a_4702_10205# a_4455_9839# VPWR VPWR sky130_fd_pr__pfet_01v8_hvt ad=0.07665 pd=0.785 as=0.178875 ps=1.26 w=0.42 l=0.15
X242 VGND a_8091_10615# _034_ VGND sky130_fd_pr__nfet_01v8 ad=0.1118 pd=1.04 as=0.182 ps=1.86 w=0.65 l=0.15
X243 VPWR VGND VPWR VPWR sky130_fd_pr__pfet_01v8_hvt ad=0.2262 pd=2.26 as=0 ps=0 w=0.87 l=1.05
X244 a_9011_3285# net8 VPWR VPWR sky130_fd_pr__pfet_01v8_hvt ad=0.07455 pd=0.775 as=0.0777 ps=0.79 w=0.42 l=0.15
X245 VGND a_6579_9019# a_6537_8751# VGND sky130_fd_pr__nfet_01v8 ad=0.1092 pd=1.36 as=0.066 ps=0.745 w=0.42 l=0.15
X246 a_8123_5487# net5 VPWR VPWR sky130_fd_pr__pfet_01v8_hvt ad=0.0588 pd=0.7 as=0.0777 ps=0.79 w=0.42 l=0.15
X247 a_7729_10927# _031_ VGND VGND sky130_fd_pr__nfet_01v8 ad=0.08775 pd=0.92 as=0.169 ps=1.82 w=0.65 l=0.15
X248 VGND net5 a_9503_8207# VGND sky130_fd_pr__nfet_01v8 ad=0.0754 pd=0.81 as=0.1352 ps=1.56 w=0.52 l=0.15
X249 _005_ a_5823_7119# VPWR VPWR sky130_fd_pr__pfet_01v8_hvt ad=0.2054 pd=2.1 as=0.11455 ps=1.08 w=0.79 l=0.15
X250 VPWR counter\[10\] _078_ VPWR sky130_fd_pr__pfet_01v8_hvt ad=0.26 pd=2.52 as=0.135 ps=1.27 w=1 l=0.15
X251 VPWR net3 a_9779_9839# VPWR sky130_fd_pr__pfet_01v8_hvt ad=0.11455 pd=1.08 as=0.2054 ps=2.1 w=0.79 l=0.15
X252 VGND VPWR VGND VGND sky130_fd_pr__nfet_01v8 ad=0.143 pd=1.62 as=0 ps=0 w=0.55 l=0.59
X253 _024_ net2 VGND VGND sky130_fd_pr__nfet_01v8 ad=0.08775 pd=0.92 as=0.169 ps=1.82 w=0.65 l=0.15
X254 VPWR a_9983_7931# a_9899_8029# VPWR sky130_fd_pr__pfet_01v8_hvt ad=0.1113 pd=1.37 as=0.0882 ps=0.84 w=0.42 l=0.15
X255 ones[0] a_9779_9839# VPWR VPWR sky130_fd_pr__pfet_01v8_hvt ad=0.2054 pd=2.1 as=0.11455 ps=1.08 w=0.79 l=0.15
X256 VPWR net7 a_9011_3285# VPWR sky130_fd_pr__pfet_01v8_hvt ad=0.0777 pd=0.79 as=0.0588 ps=0.7 w=0.42 l=0.15
X257 VGND a_3394_4917# a_3352_5321# VGND sky130_fd_pr__nfet_01v8 ad=0.12095 pd=1.085 as=0.0696 ps=0.765 w=0.42 l=0.15
X258 VGND a_2842_7775# a_2800_7663# VGND sky130_fd_pr__nfet_01v8 ad=0.12095 pd=1.085 as=0.0696 ps=0.765 w=0.42 l=0.15
X259 a_8105_9301# a_7939_9301# VPWR VPWR sky130_fd_pr__pfet_01v8_hvt ad=0.1664 pd=1.8 as=0.0864 ps=0.91 w=0.64 l=0.15
X260 VPWR clknet_1_1__leaf_clk a_7663_4949# VPWR sky130_fd_pr__pfet_01v8_hvt ad=0.0864 pd=0.91 as=0.1664 ps=1.8 w=0.64 l=0.15
X261 VPWR VGND VPWR VPWR sky130_fd_pr__pfet_01v8_hvt ad=0.2262 pd=2.26 as=0 ps=0 w=0.87 l=1.05
X262 a_4526_9813# a_4319_9813# a_4702_10205# VPWR sky130_fd_pr__pfet_01v8_hvt ad=0.06825 pd=0.745 as=0.07665 ps=0.785 w=0.42 l=0.15
X263 a_10136_4943# _061_ a_10045_4943# VPWR sky130_fd_pr__pfet_01v8_hvt ad=0.195 pd=1.39 as=0.1525 ps=1.305 w=1 l=0.15
X264 a_4455_9839# a_4319_9813# a_4035_9813# VPWR sky130_fd_pr__pfet_01v8_hvt ad=0.1095 pd=1.075 as=0.0567 ps=0.69 w=0.42 l=0.15
X265 VPWR a_9011_3285# _031_ VPWR sky130_fd_pr__pfet_01v8_hvt ad=0.27995 pd=1.615 as=0.165 ps=1.33 w=1 l=0.15
X266 a_3513_6825# _070_ _006_ VPWR sky130_fd_pr__pfet_01v8_hvt ad=0.105 pd=1.21 as=0.26 ps=2.52 w=1 l=0.15
X267 _048_ a_3137_4765# VPWR VPWR sky130_fd_pr__pfet_01v8_hvt ad=0.26 pd=2.52 as=0.14075 ps=1.325 w=1 l=0.15