* NGSPICE file created from ONES_COUNTER_pex.ext - technology: sky130A

.subckt ONES_COUNTER_pex VGND VPWR clk rst pulse ready ones[0] ones[1] ones[2] ones[3] ones[4] ones[5]
+ ones[6] ones[7] ones[8] ones[9] ones[10]
X0 _067_ a_5363_2880# VGND VGND sky130_fd_pr__nfet_01v8 ad=0.169 pd=1.82 as=0.13165 ps=1.14 w=0.65 l=0.15
X1 VPWR VGND VPWR VPWR sky130_fd_pr__pfet_01v8_hvt ad=0.2262 pd=2.26 as=135.43779 ps=1.28947k w=0.87 l=1.05
X2 VPWR a_2823_4943# a_2991_4917# VPWR sky130_fd_pr__pfet_01v8_hvt ad=0.135 pd=1.27 as=0.27 ps=2.54 w=1 l=0.15
X3 a_8999_5639# a_9095_5461# VGND VGND sky130_fd_pr__nfet_01v8 ad=0.169 pd=1.82 as=0.08775 ps=0.92 w=0.65 l=0.15
X4 VGND a_7407_4667# a_7365_4399# VGND sky130_fd_pr__nfet_01v8 ad=0.1092 pd=1.36 as=0.066 ps=0.745 w=0.42 l=0.15
X5 a_9213_3463# counter\[1\] VGND VGND sky130_fd_pr__nfet_01v8 ad=0.0567 pd=0.69 as=0.10025 ps=0.985 w=0.42 l=0.15
X6 VPWR a_3697_6031# a_3797_6147# VPWR sky130_fd_pr__pfet_01v8_hvt ad=0.0567 pd=0.69 as=0.1085 ps=1.36 w=0.42 l=0.15
X7 a_6169_6549# clk VGND VGND sky130_fd_pr__nfet_01v8 ad=0.0588 pd=0.7 as=0.0588 ps=0.7 w=0.42 l=0.15
X8 a_2907_4943# a_2125_4949# a_2823_4943# VPWR sky130_fd_pr__pfet_01v8_hvt ad=0.0882 pd=0.84 as=0.0567 ps=0.69 w=0.42 l=0.15
X9 a_3053_8751# net6 a_2971_8751# VGND sky130_fd_pr__nfet_01v8 ad=0.06195 pd=0.715 as=0.1092 ps=1.36 w=0.42 l=0.15
X10 VPWR VGND VPWR VPWR sky130_fd_pr__pfet_01v8_hvt ad=0.2262 pd=2.26 as=0 ps=0 w=0.87 l=0.59
X11 _049_ a_1670_6351# VPWR VPWR sky130_fd_pr__pfet_01v8_hvt ad=0.26 pd=2.52 as=0.26 ps=2.52 w=1 l=0.15
X12 a_9163_3855# a_8381_3861# a_9079_3855# VPWR sky130_fd_pr__pfet_01v8_hvt ad=0.0882 pd=0.84 as=0.0567 ps=0.69 w=0.42 l=0.15
X13 VGND VPWR VGND VGND sky130_fd_pr__nfet_01v8 ad=0.143 pd=1.62 as=87.036446 ps=919.38995 w=0.55 l=2.89
X14 net7 a_4279_2741# VPWR VPWR sky130_fd_pr__pfet_01v8_hvt ad=0.26 pd=2.52 as=0.135 ps=1.27 w=1 l=0.15
X15 a_5837_5303# _059_ VGND VGND sky130_fd_pr__nfet_01v8 ad=0.05355 pd=0.675 as=0.122275 ps=1.08 w=0.42 l=0.15
X16 VPWR a_5142_3423# a_5069_3677# VPWR sky130_fd_pr__pfet_01v8_hvt ad=0.178875 pd=1.26 as=0.07665 ps=0.785 w=0.42 l=0.15
X17 VGND _068_ a_3273_2251# VGND sky130_fd_pr__nfet_01v8 ad=0.1118 pd=1.04 as=0.0567 ps=0.69 w=0.42 l=0.15
X18 VGND a_9919_4087# _033_ VGND sky130_fd_pr__nfet_01v8 ad=0.13165 pd=1.14 as=0.169 ps=1.82 w=0.65 l=0.15
X19 VPWR a_8643_6249# a_8650_6153# VPWR sky130_fd_pr__pfet_01v8_hvt ad=0.0864 pd=0.91 as=0.1664 ps=1.8 w=0.64 l=0.15
X20 a_4697_5461# clknet_0_clk VPWR VPWR sky130_fd_pr__pfet_01v8_hvt ad=0.14 pd=1.28 as=0.14 ps=1.28 w=1 l=0.15
X21 VGND counter\[10\] a_5537_9839# VGND sky130_fd_pr__nfet_01v8 ad=0.169 pd=1.82 as=0.08775 ps=0.92 w=0.65 l=0.15
X22 VGND VPWR VGND VGND sky130_fd_pr__nfet_01v8 ad=0.143 pd=1.62 as=0 ps=0 w=0.55 l=0.59
X23 _039_ a_7663_7485# VPWR VPWR sky130_fd_pr__pfet_01v8_hvt ad=0.26 pd=2.52 as=0.31245 ps=1.68 w=1 l=0.15
X24 VPWR VGND VPWR VPWR sky130_fd_pr__pfet_01v8_hvt ad=0.2262 pd=2.26 as=0 ps=0 w=0.87 l=2.89
X25 a_4709_5309# _060_ a_4627_5056# VGND sky130_fd_pr__nfet_01v8 ad=0.0441 pd=0.63 as=0.1092 ps=1.36 w=0.42 l=0.15
X26 a_7290_7119# net3 VPWR VPWR sky130_fd_pr__pfet_01v8_hvt ad=0.1375 pd=1.275 as=0.14 ps=1.28 w=1 l=0.15
X27 a_9677_3311# counter\[1\] _062_ VGND sky130_fd_pr__nfet_01v8 ad=0.08775 pd=0.92 as=0.169 ps=1.82 w=0.65 l=0.15
X28 VGND a_2807_7093# a_2765_7497# VGND sky130_fd_pr__nfet_01v8 ad=0.1092 pd=1.36 as=0.066 ps=0.745 w=0.42 l=0.15
X29 a_4307_8439# a_4580_8439# a_4538_8567# VGND sky130_fd_pr__nfet_01v8 ad=0.107825 pd=1.36 as=0.0441 ps=0.63 w=0.42 l=0.15
X30 a_7369_9117# a_6835_8751# a_7274_9117# VPWR sky130_fd_pr__pfet_01v8_hvt ad=0.07665 pd=0.785 as=0.06825 ps=0.745 w=0.42 l=0.15
X31 a_8338_11177# _068_ a_8256_11177# VPWR sky130_fd_pr__pfet_01v8_hvt ad=0.0441 pd=0.63 as=0.1092 ps=1.36 w=0.42 l=0.15
X32 a_2668_4405# _060_ a_2596_4405# VGND sky130_fd_pr__nfet_01v8 ad=0.05355 pd=0.675 as=0.0441 ps=0.63 w=0.42 l=0.15
X33 VGND net4 _052_ VGND sky130_fd_pr__nfet_01v8 ad=0.169 pd=1.82 as=0.08775 ps=0.92 w=0.65 l=0.15
X34 a_5418_4511# a_5250_4765# VGND VGND sky130_fd_pr__nfet_01v8 ad=0.0989 pd=0.995 as=0.12095 ps=1.085 w=0.64 l=0.15
X35 a_6633_5487# a_6467_5487# VGND VGND sky130_fd_pr__nfet_01v8 ad=0.1092 pd=1.36 as=0.0567 ps=0.69 w=0.42 l=0.15
X36 a_7791_9295# a_7093_9301# a_7534_9269# VGND sky130_fd_pr__special_nfet_01v8 ad=0.0684 pd=0.74 as=0.0989 ps=0.995 w=0.36 l=0.15
X37 a_9832_8181# counter\[1\] a_10055_8527# VGND sky130_fd_pr__nfet_01v8 ad=0.10725 pd=0.98 as=0.10725 ps=0.98 w=0.65 l=0.15
X38 a_9379_5461# clknet_1_1__leaf_clk VGND VGND sky130_fd_pr__nfet_01v8 ad=0.1092 pd=1.36 as=0.0567 ps=0.69 w=0.42 l=0.15
X39 VGND _025_ _012_ VGND sky130_fd_pr__nfet_01v8 ad=0.112125 pd=0.995 as=0.169 ps=1.82 w=0.65 l=0.15
X40 a_10199_3285# pulse VPWR VPWR sky130_fd_pr__pfet_01v8_hvt ad=0.265 pd=2.53 as=0.1625 ps=1.325 w=1 l=0.15
X41 VPWR VGND VPWR VPWR sky130_fd_pr__pfet_01v8_hvt ad=0.2262 pd=2.26 as=0 ps=0 w=0.87 l=4.73
X42 VGND a_6169_6549# clknet_0_clk VGND sky130_fd_pr__nfet_01v8 ad=0.0588 pd=0.7 as=0.0588 ps=0.7 w=0.42 l=0.15
X43 clknet_0_clk a_6169_6549# VPWR VPWR sky130_fd_pr__pfet_01v8_hvt ad=0.14 pd=1.28 as=0.1375 ps=1.275 w=1 l=0.15
X44 VGND a_6423_11079# _057_ VGND sky130_fd_pr__nfet_01v8 ad=0.13165 pd=1.14 as=0.169 ps=1.82 w=0.65 l=0.15
X45 a_9845_3087# net12 a_10039_3087# VGND sky130_fd_pr__nfet_01v8 ad=0.08775 pd=0.92 as=0.182 ps=1.86 w=0.65 l=0.15
X46 VPWR VGND VPWR VPWR sky130_fd_pr__pfet_01v8_hvt ad=0.2262 pd=2.26 as=0 ps=0 w=0.87 l=0.59
X47 VPWR clknet_1_0__leaf_clk a_3247_2773# VPWR sky130_fd_pr__pfet_01v8_hvt ad=0.0864 pd=0.91 as=0.1664 ps=1.8 w=0.64 l=0.15
X48 VGND _093_ _011_ VGND sky130_fd_pr__nfet_01v8 ad=0.169 pd=1.82 as=0.08775 ps=0.92 w=0.65 l=0.15
X49 a_10199_2197# rst VGND VGND sky130_fd_pr__nfet_01v8 ad=0.1113 pd=1.37 as=0.06825 ps=0.745 w=0.42 l=0.15
X50 a_5801_4399# a_4811_4399# a_5675_4765# VGND sky130_fd_pr__special_nfet_01v8 ad=0.066 pd=0.745 as=0.0684 ps=0.74 w=0.36 l=0.15
X51 VPWR _068_ a_1499_5056# VPWR sky130_fd_pr__pfet_01v8_hvt ad=0.142225 pd=1.335 as=0.06615 ps=0.735 w=0.42 l=0.15
X52 a_3697_6031# _080_ VPWR VPWR sky130_fd_pr__pfet_01v8_hvt ad=0.1087 pd=1.36 as=0.1092 ps=1.36 w=0.42 l=0.15
X53 VPWR a_4771_2741# _055_ VPWR sky130_fd_pr__pfet_01v8_hvt ad=0.31245 pd=1.68 as=0.26 ps=2.52 w=1 l=0.15
X54 a_9586_5461# a_9386_5761# a_9735_5487# VGND sky130_fd_pr__special_nfet_01v8 ad=0.0621 pd=0.705 as=0.0696 ps=0.765 w=0.36 l=0.15
X55 clknet_1_1__leaf_clk a_8390_7119# VPWR VPWR sky130_fd_pr__pfet_01v8_hvt ad=0.14 pd=1.28 as=0.14 ps=1.28 w=1 l=0.15
X56 a_6814_4765# a_6541_4399# a_6729_4399# VPWR sky130_fd_pr__pfet_01v8_hvt ad=0.06825 pd=0.745 as=0.05775 ps=0.695 w=0.42 l=0.15
X57 VGND _037_ a_7939_7485# VGND sky130_fd_pr__nfet_01v8 ad=0.196275 pd=1.33 as=0.0693 ps=0.75 w=0.42 l=0.15
X58 _081_ a_2682_3311# VGND VGND sky130_fd_pr__nfet_01v8 ad=0.169 pd=1.82 as=0.25675 ps=1.44 w=0.65 l=0.15
X59 VPWR a_4697_5461# clknet_1_0__leaf_clk VPWR sky130_fd_pr__pfet_01v8_hvt ad=0.14 pd=1.28 as=0.14 ps=1.28 w=1 l=0.15
X60 _012_ _024_ VGND VGND sky130_fd_pr__nfet_01v8 ad=0.115375 pd=1.005 as=0.112125 ps=0.995 w=0.65 l=0.15
X61 a_7093_9301# a_6927_9301# VPWR VPWR sky130_fd_pr__pfet_01v8_hvt ad=0.1664 pd=1.8 as=0.0864 ps=0.91 w=0.64 l=0.15
X62 VPWR a_4595_4073# a_4602_3977# VPWR sky130_fd_pr__pfet_01v8_hvt ad=0.0864 pd=0.91 as=0.1664 ps=1.8 w=0.64 l=0.15
X63 _052_ net4 VPWR VPWR sky130_fd_pr__pfet_01v8_hvt ad=0.135 pd=1.27 as=0.26 ps=2.52 w=1 l=0.15
X64 _030_ a_7980_4649# VGND VGND sky130_fd_pr__nfet_01v8 ad=0.169 pd=1.82 as=0.10025 ps=0.985 w=0.65 l=0.15
X65 VPWR VGND VPWR VPWR sky130_fd_pr__pfet_01v8_hvt ad=0.2262 pd=2.26 as=0 ps=0 w=0.87 l=1.97
X66 VGND VPWR VGND VGND sky130_fd_pr__nfet_01v8 ad=0.143 pd=1.62 as=0 ps=0 w=0.55 l=1.97
X67 a_8381_3861# a_8215_3861# VGND VGND sky130_fd_pr__nfet_01v8 ad=0.1092 pd=1.36 as=0.0567 ps=0.69 w=0.42 l=0.15
X68 a_9586_5461# a_9379_5461# a_9762_5853# VPWR sky130_fd_pr__pfet_01v8_hvt ad=0.06825 pd=0.745 as=0.07665 ps=0.785 w=0.42 l=0.15
X69 a_9558_4917# a_9390_4943# VPWR VPWR sky130_fd_pr__pfet_01v8_hvt ad=0.1095 pd=1.075 as=0.178875 ps=1.26 w=0.75 l=0.15
X70 VGND a_9832_8181# _069_ VGND sky130_fd_pr__nfet_01v8 ad=0.112125 pd=0.995 as=0.17225 ps=1.83 w=0.65 l=0.15
X71 a_9933_5487# a_9379_5461# a_9586_5461# VGND sky130_fd_pr__special_nfet_01v8 ad=0.0813 pd=0.83 as=0.0621 ps=0.705 w=0.36 l=0.15
X72 VPWR VGND VPWR VPWR sky130_fd_pr__pfet_01v8_hvt ad=0.2262 pd=2.26 as=0 ps=0 w=0.87 l=4.73
X73 a_9325_8573# _077_ a_9253_8573# VGND sky130_fd_pr__nfet_01v8 ad=0.0441 pd=0.63 as=0.0441 ps=0.63 w=0.42 l=0.15
X74 a_2398_4943# a_1959_4949# a_2313_4943# VGND sky130_fd_pr__special_nfet_01v8 ad=0.0621 pd=0.705 as=0.0813 ps=0.83 w=0.36 l=0.15
X75 a_9117_4949# a_8951_4949# VPWR VPWR sky130_fd_pr__pfet_01v8_hvt ad=0.1664 pd=1.8 as=0.0864 ps=0.91 w=0.64 l=0.15
X76 VPWR VGND VPWR VPWR sky130_fd_pr__pfet_01v8_hvt ad=0.2262 pd=2.26 as=0 ps=0 w=0.87 l=4.73
X77 a_6003_10089# counter\[2\] a_5785_9813# VPWR sky130_fd_pr__pfet_01v8_hvt ad=0.1375 pd=1.275 as=0.26 ps=2.52 w=1 l=0.15
X78 VGND VPWR VGND VGND sky130_fd_pr__nfet_01v8 ad=0.143 pd=1.62 as=0 ps=0 w=0.55 l=2.89
X79 a_9762_5853# a_9515_5487# VPWR VPWR sky130_fd_pr__pfet_01v8_hvt ad=0.07665 pd=0.785 as=0.178875 ps=1.26 w=0.42 l=0.15
X80 VGND VPWR VGND VGND sky130_fd_pr__nfet_01v8 ad=0.143 pd=1.62 as=0 ps=0 w=0.55 l=4.73
X81 a_8215_10496# _030_ VPWR VPWR sky130_fd_pr__pfet_01v8_hvt ad=0.06615 pd=0.735 as=0.0567 ps=0.69 w=0.42 l=0.15
X82 VGND _010_ a_9197_6409# VGND sky130_fd_pr__nfet_01v8 ad=0.1092 pd=1.36 as=0.0813 ps=0.83 w=0.42 l=0.15
X83 a_8601_6031# a_8263_6263# VPWR VPWR sky130_fd_pr__pfet_01v8_hvt ad=0.0882 pd=0.84 as=0.1113 ps=1.37 w=0.42 l=0.15
X84 ones[3] a_10239_7663# VPWR VPWR sky130_fd_pr__pfet_01v8_hvt ad=0.2054 pd=2.1 as=0.11455 ps=1.08 w=0.79 l=0.15
X85 VGND VPWR VGND VGND sky130_fd_pr__nfet_01v8 ad=0.143 pd=1.62 as=0 ps=0 w=0.55 l=1.05
X86 a_6475_7913# a_6283_7669# VGND VGND sky130_fd_pr__nfet_01v8 ad=0.0567 pd=0.69 as=0.1575 ps=1.17 w=0.42 l=0.15
X87 a_9961_8527# counter\[2\] VGND VGND sky130_fd_pr__nfet_01v8 ad=0.104 pd=0.97 as=0.112125 ps=0.995 w=0.65 l=0.15
X88 a_2046_6575# a_1731_6727# VGND VGND sky130_fd_pr__nfet_01v8 ad=0.066 pd=0.745 as=0.1092 ps=1.36 w=0.42 l=0.15
X89 VGND a_8390_7119# clknet_1_1__leaf_clk VGND sky130_fd_pr__nfet_01v8 ad=0.0588 pd=0.7 as=0.0588 ps=0.7 w=0.42 l=0.15
X90 VGND a_2639_7119# a_2807_7093# VGND sky130_fd_pr__nfet_01v8 ad=0.08775 pd=0.92 as=0.169 ps=1.82 w=0.65 l=0.15
X91 a_3854_2741# a_3686_2767# VPWR VPWR sky130_fd_pr__pfet_01v8_hvt ad=0.1095 pd=1.075 as=0.178875 ps=1.26 w=0.75 l=0.15
X92 VPWR a_6982_4511# a_6909_4765# VPWR sky130_fd_pr__pfet_01v8_hvt ad=0.178875 pd=1.26 as=0.07665 ps=0.785 w=0.42 l=0.15
X93 VPWR VGND VPWR VPWR sky130_fd_pr__pfet_01v8_hvt ad=0.2262 pd=2.26 as=0 ps=0 w=0.87 l=2.89
X94 counter\[2\] a_6719_10615# VPWR VPWR sky130_fd_pr__pfet_01v8_hvt ad=0.135 pd=1.27 as=0.26 ps=2.52 w=1 l=0.15
X95 a_6446_3677# a_6173_3311# a_6361_3311# VPWR sky130_fd_pr__pfet_01v8_hvt ad=0.06825 pd=0.745 as=0.05775 ps=0.695 w=0.42 l=0.15
X96 a_2524_5321# a_2125_4949# a_2398_4943# VGND sky130_fd_pr__special_nfet_01v8 ad=0.0696 pd=0.765 as=0.0621 ps=0.705 w=0.36 l=0.15
X97 a_4229_10761# a_3682_10505# a_3882_10660# VPWR sky130_fd_pr__pfet_01v8_hvt ad=0.05775 pd=0.695 as=0.06825 ps=0.745 w=0.42 l=0.15
X98 a_2555_10704# counter\[0\] VPWR VPWR sky130_fd_pr__pfet_01v8_hvt ad=0.1092 pd=1.36 as=0.0567 ps=0.69 w=0.42 l=0.15
X99 a_5169_3133# counter\[4\] a_5063_3133# VGND sky130_fd_pr__nfet_01v8 ad=0.0609 pd=0.71 as=0.0798 ps=0.8 w=0.42 l=0.15
X100 a_6515_4074# _029_ VGND VGND sky130_fd_pr__nfet_01v8 ad=0.1352 pd=1.56 as=0.0754 ps=0.81 w=0.52 l=0.15
X101 a_2409_4445# _074_ VGND VGND sky130_fd_pr__nfet_01v8 ad=0.10785 pd=1.36 as=0.1092 ps=1.36 w=0.42 l=0.15
X102 VGND net2 a_9096_4373# VGND sky130_fd_pr__nfet_01v8 ad=0.208 pd=1.94 as=0.10725 ps=0.98 w=0.65 l=0.15
X103 VPWR VGND VPWR VPWR sky130_fd_pr__pfet_01v8_hvt ad=0.2262 pd=2.26 as=0 ps=0 w=0.87 l=4.73
X104 VGND VPWR VGND VGND sky130_fd_pr__nfet_01v8 ad=0.143 pd=1.62 as=0 ps=0 w=0.55 l=0.59
X105 VGND VPWR VGND VGND sky130_fd_pr__nfet_01v8 ad=0.143 pd=1.62 as=0 ps=0 w=0.55 l=0.59
X106 VPWR _034_ a_2697_2767# VPWR sky130_fd_pr__pfet_01v8_hvt ad=0.14 pd=1.28 as=0.265 ps=2.53 w=1 l=0.15
X107 a_7074_5599# a_6906_5853# VPWR VPWR sky130_fd_pr__pfet_01v8_hvt ad=0.1095 pd=1.075 as=0.178875 ps=1.26 w=0.75 l=0.15
X108 a_9896_9001# _084_ a_9435_9001# VPWR sky130_fd_pr__pfet_01v8_hvt ad=0.105 pd=1.21 as=0.4125 ps=1.825 w=1 l=0.15
X109 a_3799_10927# _071_ VPWR VPWR sky130_fd_pr__pfet_01v8_hvt ad=0.06615 pd=0.735 as=0.0567 ps=0.69 w=0.42 l=0.15
X110 a_9314_5487# a_8999_5639# VGND VGND sky130_fd_pr__nfet_01v8 ad=0.066 pd=0.745 as=0.1092 ps=1.36 w=0.42 l=0.15
X111 a_6541_6037# a_6375_6037# VPWR VPWR sky130_fd_pr__pfet_01v8_hvt ad=0.1664 pd=1.8 as=0.0864 ps=0.91 w=0.64 l=0.15
X112 a_7074_5599# a_6906_5853# VGND VGND sky130_fd_pr__nfet_01v8 ad=0.0989 pd=0.995 as=0.12095 ps=1.085 w=0.64 l=0.15
X113 VGND a_4697_5461# clknet_1_0__leaf_clk VGND sky130_fd_pr__nfet_01v8 ad=0.0588 pd=0.7 as=0.0588 ps=0.7 w=0.42 l=0.15
X114 VPWR _031_ a_6557_7913# VPWR sky130_fd_pr__pfet_01v8_hvt ad=0.14825 pd=1.34 as=0.0441 ps=0.63 w=0.42 l=0.15
X115 a_4078_8757# _060_ a_3997_8757# VGND sky130_fd_pr__nfet_01v8 ad=0.0441 pd=0.63 as=0.05355 ps=0.675 w=0.42 l=0.15
X116 a_6425_10602# _045_ VGND VGND sky130_fd_pr__nfet_01v8 ad=0.1352 pd=1.56 as=0.0754 ps=0.81 w=0.52 l=0.15
X117 VPWR a_7791_9295# a_7959_9269# VPWR sky130_fd_pr__pfet_01v8_hvt ad=0.135 pd=1.27 as=0.27 ps=2.54 w=1 l=0.15
X118 VPWR VGND VPWR VPWR sky130_fd_pr__pfet_01v8_hvt ad=0.2262 pd=2.26 as=0 ps=0 w=0.87 l=1.05
X119 a_6719_10615# a_6887_10615# VGND VGND sky130_fd_pr__nfet_01v8 ad=0.169 pd=1.82 as=0.08775 ps=0.92 w=0.65 l=0.15
X120 VGND a_8822_3829# a_8780_4233# VGND sky130_fd_pr__nfet_01v8 ad=0.12095 pd=1.085 as=0.0696 ps=0.765 w=0.42 l=0.15
X121 a_9933_5487# a_9386_5761# a_9586_5461# VPWR sky130_fd_pr__pfet_01v8_hvt ad=0.05775 pd=0.695 as=0.06825 ps=0.745 w=0.42 l=0.15
X122 VGND VPWR VGND VGND sky130_fd_pr__nfet_01v8 ad=0.143 pd=1.62 as=0 ps=0 w=0.55 l=2.89
X123 a_2125_4949# a_1959_4949# VGND VGND sky130_fd_pr__nfet_01v8 ad=0.1092 pd=1.36 as=0.0567 ps=0.69 w=0.42 l=0.15
X124 a_7366_9295# a_6927_9301# a_7281_9295# VGND sky130_fd_pr__special_nfet_01v8 ad=0.0621 pd=0.705 as=0.0813 ps=0.83 w=0.36 l=0.15
X125 VPWR net9 a_10239_8751# VPWR sky130_fd_pr__pfet_01v8_hvt ad=0.11455 pd=1.08 as=0.2054 ps=2.1 w=0.79 l=0.15
X126 VPWR _046_ a_8447_5175# VPWR sky130_fd_pr__pfet_01v8_hvt ad=0.0567 pd=0.69 as=0.06615 ps=0.735 w=0.42 l=0.15
X127 a_7171_10601# clknet_1_1__leaf_clk VPWR VPWR sky130_fd_pr__pfet_01v8_hvt ad=0.1664 pd=1.8 as=0.0864 ps=0.91 w=0.64 l=0.15
X128 VGND clk a_6169_6549# VGND sky130_fd_pr__nfet_01v8 ad=0.0588 pd=0.7 as=0.0588 ps=0.7 w=0.42 l=0.15
X129 a_8390_7119# clknet_0_clk VPWR VPWR sky130_fd_pr__pfet_01v8_hvt ad=0.14 pd=1.28 as=0.265 ps=2.53 w=1 l=0.15
X130 VPWR VGND VPWR VPWR sky130_fd_pr__pfet_01v8_hvt ad=0.2262 pd=2.26 as=0 ps=0 w=0.87 l=0.59
X131 VGND a_4981_9991# _023_ VGND sky130_fd_pr__nfet_01v8 ad=0.10025 pd=0.985 as=0.169 ps=1.82 w=0.65 l=0.15
X132 VPWR a_8631_2986# _014_ VPWR sky130_fd_pr__pfet_01v8_hvt ad=0.11455 pd=1.08 as=0.2054 ps=2.1 w=0.79 l=0.15
X133 a_7875_9295# a_7093_9301# a_7791_9295# VPWR sky130_fd_pr__pfet_01v8_hvt ad=0.0882 pd=0.84 as=0.0567 ps=0.69 w=0.42 l=0.15
X134 VPWR a_6614_3423# a_6541_3677# VPWR sky130_fd_pr__pfet_01v8_hvt ad=0.178875 pd=1.26 as=0.07665 ps=0.785 w=0.42 l=0.15
X135 VPWR clknet_0_clk a_4697_5461# VPWR sky130_fd_pr__pfet_01v8_hvt ad=0.265 pd=2.53 as=0.14 ps=1.28 w=1 l=0.15
X136 VGND counter\[6\] a_4668_7913# VGND sky130_fd_pr__nfet_01v8 ad=0.10025 pd=0.985 as=0.0567 ps=0.69 w=0.42 l=0.15
X137 clknet_1_0__leaf_clk a_4697_5461# VGND VGND sky130_fd_pr__nfet_01v8 ad=0.0588 pd=0.7 as=0.0588 ps=0.7 w=0.42 l=0.15
X138 VPWR VGND VPWR VPWR sky130_fd_pr__pfet_01v8_hvt ad=0.2262 pd=2.26 as=0 ps=0 w=0.87 l=0.59
X139 _088_ a_2460_3971# VGND VGND sky130_fd_pr__nfet_01v8 ad=0.169 pd=1.82 as=0.10025 ps=0.985 w=0.65 l=0.15
X140 VPWR a_5843_4667# counter\[0\] VPWR sky130_fd_pr__pfet_01v8_hvt ad=0.26 pd=2.52 as=0.135 ps=1.27 w=1 l=0.15
X141 a_7492_9673# a_7093_9301# a_7366_9295# VGND sky130_fd_pr__special_nfet_01v8 ad=0.0696 pd=0.765 as=0.0621 ps=0.705 w=0.36 l=0.15
X142 VPWR net1 a_7290_7119# VPWR sky130_fd_pr__pfet_01v8_hvt ad=0.26 pd=2.52 as=0.1375 ps=1.275 w=1 l=0.15
X143 VGND net3 a_10239_9839# VGND sky130_fd_pr__nfet_01v8 ad=0.0754 pd=0.81 as=0.1352 ps=1.56 w=0.52 l=0.15
X144 _084_ counter\[8\] VPWR VPWR sky130_fd_pr__pfet_01v8_hvt ad=0.135 pd=1.27 as=0.26 ps=2.52 w=1 l=0.15
X145 a_4311_4087# a_4595_4073# a_4530_4221# VGND sky130_fd_pr__special_nfet_01v8 ad=0.0684 pd=0.74 as=0.066 ps=0.745 w=0.36 l=0.15
X146 a_6541_3677# a_6007_3311# a_6446_3677# VPWR sky130_fd_pr__pfet_01v8_hvt ad=0.07665 pd=0.785 as=0.06825 ps=0.745 w=0.42 l=0.15
X147 VGND a_3854_2741# a_3812_3145# VGND sky130_fd_pr__nfet_01v8 ad=0.12095 pd=1.085 as=0.0696 ps=0.765 w=0.42 l=0.15
X148 VGND VPWR VGND VGND sky130_fd_pr__nfet_01v8 ad=0.143 pd=1.62 as=0 ps=0 w=0.55 l=0.59
X149 VPWR _054_ a_5087_6575# VPWR sky130_fd_pr__pfet_01v8_hvt ad=0.11455 pd=1.08 as=0.2054 ps=2.1 w=0.79 l=0.15
X150 a_7725_10761# a_7171_10601# a_7378_10660# VGND sky130_fd_pr__special_nfet_01v8 ad=0.0813 pd=0.83 as=0.0621 ps=0.705 w=0.36 l=0.15
X151 a_6982_6005# a_6814_6031# VGND VGND sky130_fd_pr__nfet_01v8 ad=0.0989 pd=0.995 as=0.12095 ps=1.085 w=0.64 l=0.15
X152 clknet_0_clk a_6169_6549# VGND VGND sky130_fd_pr__nfet_01v8 ad=0.0588 pd=0.7 as=0.0588 ps=0.7 w=0.42 l=0.15
X153 VPWR a_6169_6549# clknet_0_clk VPWR sky130_fd_pr__pfet_01v8_hvt ad=0.14 pd=1.28 as=0.14 ps=1.28 w=1 l=0.15
X154 a_8569_3855# _015_ VGND VGND sky130_fd_pr__nfet_01v8 ad=0.0813 pd=0.83 as=0.1092 ps=1.36 w=0.42 l=0.15
X155 _050_ net11 VPWR VPWR sky130_fd_pr__pfet_01v8_hvt ad=0.135 pd=1.27 as=0.135 ps=1.27 w=1 l=0.15
X156 VGND VPWR VGND VGND sky130_fd_pr__nfet_01v8 ad=0.143 pd=1.62 as=0 ps=0 w=0.55 l=2.89
X157 a_3633_10383# a_3295_10615# VPWR VPWR sky130_fd_pr__pfet_01v8_hvt ad=0.0882 pd=0.84 as=0.1113 ps=1.37 w=0.42 l=0.15
X158 VPWR clknet_1_1__leaf_clk a_6927_9301# VPWR sky130_fd_pr__pfet_01v8_hvt ad=0.0864 pd=0.91 as=0.1664 ps=1.8 w=0.64 l=0.15
X159 VPWR VGND VPWR VPWR sky130_fd_pr__pfet_01v8_hvt ad=0.2262 pd=2.26 as=0 ps=0 w=0.87 l=0.59
X160 VPWR _028_ a_8215_10496# VPWR sky130_fd_pr__pfet_01v8_hvt ad=0.0567 pd=0.69 as=0.1092 ps=1.36 w=0.42 l=0.15
X161 VPWR VGND VPWR VPWR sky130_fd_pr__pfet_01v8_hvt ad=0.2262 pd=2.26 as=0 ps=0 w=0.87 l=2.89
X162 VGND a_8907_2986# _008_ VGND sky130_fd_pr__nfet_01v8 ad=0.0754 pd=0.81 as=0.1352 ps=1.56 w=0.52 l=0.15
X163 VGND VPWR VGND VGND sky130_fd_pr__nfet_01v8 ad=0.143 pd=1.62 as=0 ps=0 w=0.55 l=0.59
X164 a_6703_2197# a_6987_2197# a_6922_2223# VGND sky130_fd_pr__special_nfet_01v8 ad=0.0684 pd=0.74 as=0.066 ps=0.745 w=0.36 l=0.15
X165 VGND net9 a_10239_8751# VGND sky130_fd_pr__nfet_01v8 ad=0.0754 pd=0.81 as=0.1352 ps=1.56 w=0.52 l=0.15
X166 net14 a_7867_9019# VGND VGND sky130_fd_pr__nfet_01v8 ad=0.08775 pd=0.92 as=0.08775 ps=0.92 w=0.65 l=0.15
X167 a_8113_2223# counter\[1\] _065_ VGND sky130_fd_pr__nfet_01v8 ad=0.10725 pd=0.98 as=0.169 ps=1.82 w=0.65 l=0.15
X168 a_4697_5461# clknet_0_clk VPWR VPWR sky130_fd_pr__pfet_01v8_hvt ad=0.14 pd=1.28 as=0.14 ps=1.28 w=1 l=0.15
X169 a_4701_3311# a_4535_3311# VGND VGND sky130_fd_pr__nfet_01v8 ad=0.1092 pd=1.36 as=0.0567 ps=0.69 w=0.42 l=0.15
X170 VGND a_5843_4667# counter\[0\] VGND sky130_fd_pr__nfet_01v8 ad=0.169 pd=1.82 as=0.08775 ps=0.92 w=0.65 l=0.15
X171 VPWR a_2971_8751# _026_ VPWR sky130_fd_pr__pfet_01v8_hvt ad=0.3 pd=2.6 as=0.165 ps=1.33 w=1 l=0.15
X172 a_6987_2197# clknet_1_1__leaf_clk VPWR VPWR sky130_fd_pr__pfet_01v8_hvt ad=0.1664 pd=1.8 as=0.0864 ps=0.91 w=0.64 l=0.15
X173 VPWR VGND VPWR VPWR sky130_fd_pr__pfet_01v8_hvt ad=0.2262 pd=2.26 as=0 ps=0 w=0.87 l=0.59
X174 VGND a_9586_6549# a_9515_6575# VGND sky130_fd_pr__nfet_01v8 ad=0.12095 pd=1.085 as=0.0989 ps=0.995 w=0.64 l=0.15
X175 VPWR a_8390_7119# clknet_1_1__leaf_clk VPWR sky130_fd_pr__pfet_01v8_hvt ad=0.14 pd=1.28 as=0.14 ps=1.28 w=1 l=0.15
X176 a_7323_4765# a_6541_4399# a_7239_4765# VPWR sky130_fd_pr__pfet_01v8_hvt ad=0.0882 pd=0.84 as=0.0567 ps=0.69 w=0.42 l=0.15
X177 VGND _004_ a_9933_5487# VGND sky130_fd_pr__nfet_01v8 ad=0.1092 pd=1.36 as=0.0813 ps=0.83 w=0.42 l=0.15
X178 VPWR VGND VPWR VPWR sky130_fd_pr__pfet_01v8_hvt ad=0.2262 pd=2.26 as=0 ps=0 w=0.87 l=0.59
X179 VPWR _023_ a_1867_3561# VPWR sky130_fd_pr__pfet_01v8_hvt ad=0.1475 pd=1.295 as=0.265 ps=2.53 w=1 l=0.15
X180 a_7282_4221# counter\[0\] a_7193_4221# VGND sky130_fd_pr__nfet_01v8 ad=0.0798 pd=0.8 as=0.06195 ps=0.715 w=0.42 l=0.15
X181 VPWR counter\[5\] a_4771_2741# VPWR sky130_fd_pr__pfet_01v8_hvt ad=0.1092 pd=1.36 as=0.0735 ps=0.77 w=0.42 l=0.15
X182 VPWR _008_ a_7357_9839# VPWR sky130_fd_pr__pfet_01v8_hvt ad=0.1092 pd=1.36 as=0.05775 ps=0.695 w=0.42 l=0.15
X183 VGND _075_ a_2668_4405# VGND sky130_fd_pr__nfet_01v8 ad=0.122275 pd=1.08 as=0.05355 ps=0.675 w=0.42 l=0.15
X184 a_6719_10615# a_6887_10615# VPWR VPWR sky130_fd_pr__pfet_01v8_hvt ad=0.27 pd=2.54 as=0.135 ps=1.27 w=1 l=0.15
X185 VPWR a_2555_10704# a_2191_10615# VPWR sky130_fd_pr__pfet_01v8_hvt ad=0.0567 pd=0.69 as=0.0987 ps=0.89 w=0.42 l=0.15
X186 VGND counter\[2\] a_7388_4221# VGND sky130_fd_pr__nfet_01v8 ad=0.17515 pd=1.265 as=0.0693 ps=0.75 w=0.42 l=0.15
X187 VGND net14 _028_ VGND sky130_fd_pr__nfet_01v8 ad=0.182 pd=1.86 as=0.08775 ps=0.92 w=0.65 l=0.15
X188 VPWR VGND VPWR VPWR sky130_fd_pr__pfet_01v8_hvt ad=0.2262 pd=2.26 as=0 ps=0 w=0.87 l=4.73
X189 a_1584_6351# _043_ VGND VGND sky130_fd_pr__nfet_01v8 ad=0.091 pd=0.93 as=0.17225 ps=1.83 w=0.65 l=0.15
X190 a_1827_6549# a_2111_6549# a_2046_6575# VGND sky130_fd_pr__special_nfet_01v8 ad=0.0684 pd=0.74 as=0.066 ps=0.745 w=0.36 l=0.15
X191 VPWR VGND VPWR VPWR sky130_fd_pr__pfet_01v8_hvt ad=0.2262 pd=2.26 as=0 ps=0 w=0.87 l=0.59
X192 a_4227_2197# clknet_1_0__leaf_clk VGND VGND sky130_fd_pr__nfet_01v8 ad=0.1092 pd=1.36 as=0.0567 ps=0.69 w=0.42 l=0.15
X193 a_10287_6250# _082_ VPWR VPWR sky130_fd_pr__pfet_01v8_hvt ad=0.2054 pd=2.1 as=0.11455 ps=1.08 w=0.79 l=0.15
X194 a_5785_9813# counter\[2\] VGND VGND sky130_fd_pr__nfet_01v8 ad=0.089375 pd=0.925 as=0.25675 ps=1.44 w=0.65 l=0.15
X195 a_7745_7485# net10 a_7663_7485# VGND sky130_fd_pr__nfet_01v8 ad=0.0609 pd=0.71 as=0.1092 ps=1.36 w=0.42 l=0.15
X196 a_3601_2767# _014_ VGND VGND sky130_fd_pr__nfet_01v8 ad=0.0813 pd=0.83 as=0.1092 ps=1.36 w=0.42 l=0.15
X197 a_3956_6391# _060_ a_3884_6391# VGND sky130_fd_pr__nfet_01v8 ad=0.05355 pd=0.675 as=0.0441 ps=0.63 w=0.42 l=0.15
X198 VGND _013_ a_4781_2223# VGND sky130_fd_pr__nfet_01v8 ad=0.1092 pd=1.36 as=0.0813 ps=0.83 w=0.42 l=0.15
X199 VGND net5 _024_ VGND sky130_fd_pr__nfet_01v8 ad=0.17225 pd=1.83 as=0.091 ps=0.93 w=0.65 l=0.15
X200 VGND a_7171_10601# a_7178_10505# VGND sky130_fd_pr__nfet_01v8 ad=0.0567 pd=0.69 as=0.1092 ps=1.36 w=0.42 l=0.15
X201 ones[8] a_9687_7663# VPWR VPWR sky130_fd_pr__pfet_01v8_hvt ad=0.2054 pd=2.1 as=0.11455 ps=1.08 w=0.79 l=0.15
X202 VPWR _084_ a_4627_5056# VPWR sky130_fd_pr__pfet_01v8_hvt ad=0.142225 pd=1.335 as=0.06615 ps=0.735 w=0.42 l=0.15
X203 VPWR _061_ a_4627_6031# VPWR sky130_fd_pr__pfet_01v8_hvt ad=0.11455 pd=1.08 as=0.2054 ps=2.1 w=0.79 l=0.15
X204 VGND _073_ a_9503_8207# VGND sky130_fd_pr__nfet_01v8 ad=0.0754 pd=0.81 as=0.1352 ps=1.56 w=0.52 l=0.15
X205 VPWR VGND VPWR VPWR sky130_fd_pr__pfet_01v8_hvt ad=0.2262 pd=2.26 as=0 ps=0 w=0.87 l=2.89
X206 _064_ a_3983_5056# VPWR VPWR sky130_fd_pr__pfet_01v8_hvt ad=0.26 pd=2.52 as=0.142225 ps=1.335 w=1 l=0.15
X207 VPWR a_4981_9991# _023_ VPWR sky130_fd_pr__pfet_01v8_hvt ad=0.14575 pd=1.335 as=0.34 ps=2.68 w=1 l=0.15
X208 VGND a_7378_10660# a_7307_10761# VGND sky130_fd_pr__nfet_01v8 ad=0.12095 pd=1.085 as=0.0989 ps=0.995 w=0.64 l=0.15
X209 a_5399_3677# a_4535_3311# a_5142_3423# VPWR sky130_fd_pr__pfet_01v8_hvt ad=0.0567 pd=0.69 as=0.1095 ps=1.075 w=0.42 l=0.15
X210 VGND VPWR VGND VGND sky130_fd_pr__nfet_01v8 ad=0.143 pd=1.62 as=0 ps=0 w=0.55 l=0.59
X211 a_9629_9001# _087_ VPWR VPWR sky130_fd_pr__pfet_01v8_hvt ad=0.105 pd=1.21 as=0.165 ps=1.33 w=1 l=0.15
X212 ones[3] a_10239_7663# VGND VGND sky130_fd_pr__nfet_01v8 ad=0.1352 pd=1.56 as=0.0754 ps=0.81 w=0.52 l=0.15
X213 a_7106_10749# a_6719_10615# VGND VGND sky130_fd_pr__nfet_01v8 ad=0.066 pd=0.745 as=0.1092 ps=1.36 w=0.42 l=0.15
X214 _058_ a_1867_4399# VGND VGND sky130_fd_pr__nfet_01v8 ad=0.169 pd=1.82 as=0.13165 ps=1.14 w=0.65 l=0.15
X215 VPWR net5 a_3123_6031# VPWR sky130_fd_pr__pfet_01v8_hvt ad=0.165 pd=1.33 as=0.165 ps=1.33 w=1 l=0.15
X216 VPWR counter\[8\] a_1683_10496# VPWR sky130_fd_pr__pfet_01v8_hvt ad=0.0567 pd=0.69 as=0.1092 ps=1.36 w=0.42 l=0.15
X217 VGND VPWR VGND VGND sky130_fd_pr__nfet_01v8 ad=0.143 pd=1.62 as=0 ps=0 w=0.55 l=4.73
X218 VGND a_2823_4943# a_2991_4917# VGND sky130_fd_pr__nfet_01v8 ad=0.08775 pd=0.92 as=0.169 ps=1.82 w=0.65 l=0.15
X219 clknet_1_1__leaf_clk a_8390_7119# VGND VGND sky130_fd_pr__nfet_01v8 ad=0.0588 pd=0.7 as=0.0588 ps=0.7 w=0.42 l=0.15
X220 a_6887_10615# a_7178_10505# a_7129_10383# VPWR sky130_fd_pr__pfet_01v8_hvt ad=0.0567 pd=0.69 as=0.0882 ps=0.84 w=0.42 l=0.15
X221 net14 a_7867_9019# VPWR VPWR sky130_fd_pr__pfet_01v8_hvt ad=0.135 pd=1.27 as=0.135 ps=1.27 w=1 l=0.15
X222 VGND _090_ a_9624_8751# VGND sky130_fd_pr__nfet_01v8 ad=0.08775 pd=0.92 as=0.08775 ps=0.92 w=0.65 l=0.15
X223 VGND a_4215_4087# net13 VGND sky130_fd_pr__nfet_01v8 ad=0.08775 pd=0.92 as=0.169 ps=1.82 w=0.65 l=0.15
X224 VGND VPWR VGND VGND sky130_fd_pr__nfet_01v8 ad=0.143 pd=1.62 as=0 ps=0 w=0.55 l=2.89
X225 _010_ a_9435_9001# VPWR VPWR sky130_fd_pr__pfet_01v8_hvt ad=0.28 pd=2.56 as=0.165 ps=1.33 w=1 l=0.15
X226 VGND VPWR VGND VGND sky130_fd_pr__nfet_01v8 ad=0.143 pd=1.62 as=0 ps=0 w=0.55 l=2.89
X227 VPWR _060_ a_5363_2880# VPWR sky130_fd_pr__pfet_01v8_hvt ad=0.0567 pd=0.69 as=0.1092 ps=1.36 w=0.42 l=0.15
X228 VGND a_6803_9813# a_6810_10113# VGND sky130_fd_pr__nfet_01v8 ad=0.0567 pd=0.69 as=0.1092 ps=1.36 w=0.42 l=0.15
X229 net7 a_4279_2741# VGND VGND sky130_fd_pr__nfet_01v8 ad=0.169 pd=1.82 as=0.08775 ps=0.92 w=0.65 l=0.15
X230 VPWR a_4123_9514# _009_ VPWR sky130_fd_pr__pfet_01v8_hvt ad=0.11455 pd=1.08 as=0.2054 ps=2.1 w=0.79 l=0.15
X231 a_6982_6005# a_6814_6031# VPWR VPWR sky130_fd_pr__pfet_01v8_hvt ad=0.1095 pd=1.075 as=0.178875 ps=1.26 w=0.75 l=0.15
X232 a_10287_6250# _082_ VGND VGND sky130_fd_pr__nfet_01v8 ad=0.1352 pd=1.56 as=0.0754 ps=0.81 w=0.52 l=0.15
X233 a_4434_2197# a_4227_2197# a_4610_2589# VPWR sky130_fd_pr__pfet_01v8_hvt ad=0.06825 pd=0.745 as=0.07665 ps=0.785 w=0.42 l=0.15
X234 VGND VPWR VGND VGND sky130_fd_pr__nfet_01v8 ad=0.143 pd=1.62 as=0 ps=0 w=0.55 l=0.59
X235 VGND VPWR VGND VGND sky130_fd_pr__nfet_01v8 ad=0.143 pd=1.62 as=0 ps=0 w=0.55 l=0.59
X236 clknet_1_0__leaf_clk a_4697_5461# VGND VGND sky130_fd_pr__nfet_01v8 ad=0.0588 pd=0.7 as=0.0588 ps=0.7 w=0.42 l=0.15
X237 a_3295_10615# a_3391_10615# VGND VGND sky130_fd_pr__nfet_01v8 ad=0.169 pd=1.82 as=0.08775 ps=0.92 w=0.65 l=0.15
X238 VGND VPWR VGND VGND sky130_fd_pr__nfet_01v8 ad=0.143 pd=1.62 as=0 ps=0 w=0.55 l=0.59
X239 VPWR _037_ a_4535_7232# VPWR sky130_fd_pr__pfet_01v8_hvt ad=0.142225 pd=1.335 as=0.06615 ps=0.735 w=0.42 l=0.15
X240 VPWR clknet_1_0__leaf_clk a_6467_5487# VPWR sky130_fd_pr__pfet_01v8_hvt ad=0.0864 pd=0.91 as=0.1664 ps=1.8 w=0.64 l=0.15
X241 VGND _061_ a_4627_6031# VGND sky130_fd_pr__nfet_01v8 ad=0.0754 pd=0.81 as=0.1352 ps=1.56 w=0.52 l=0.15
X242 a_3701_5309# a_3431_4943# a_3611_4943# VGND sky130_fd_pr__nfet_01v8 ad=0.0504 pd=0.66 as=0.1092 ps=1.36 w=0.42 l=0.15
X243 VPWR a_5687_5175# _070_ VPWR sky130_fd_pr__pfet_01v8_hvt ad=0.142225 pd=1.335 as=0.26 ps=2.52 w=1 l=0.15
X244 VGND _020_ a_5149_4233# VGND sky130_fd_pr__nfet_01v8 ad=0.1092 pd=1.36 as=0.0813 ps=0.83 w=0.42 l=0.15
X245 VPWR _035_ a_4307_8439# VPWR sky130_fd_pr__pfet_01v8_hvt ad=0.0567 pd=0.69 as=0.074375 ps=0.815 w=0.42 l=0.15
X246 a_9899_4943# a_9117_4949# a_9815_4943# VPWR sky130_fd_pr__pfet_01v8_hvt ad=0.0882 pd=0.84 as=0.0567 ps=0.69 w=0.42 l=0.15
X247 VPWR net11 a_7847_3855# VPWR sky130_fd_pr__pfet_01v8_hvt ad=0.11455 pd=1.08 as=0.2054 ps=2.1 w=0.79 l=0.15
X248 a_4583_2223# a_4363_2223# VGND VGND sky130_fd_pr__nfet_01v8 ad=0.0696 pd=0.765 as=0.12095 ps=1.085 w=0.42 l=0.15
X249 VPWR VGND VPWR VPWR sky130_fd_pr__pfet_01v8_hvt ad=0.2262 pd=2.26 as=0 ps=0 w=0.87 l=2.89
X250 a_2129_7119# _017_ VPWR VPWR sky130_fd_pr__pfet_01v8_hvt ad=0.05775 pd=0.695 as=0.1092 ps=1.36 w=0.42 l=0.15
X251 VPWR a_5567_3579# a_5483_3677# VPWR sky130_fd_pr__pfet_01v8_hvt ad=0.1113 pd=1.37 as=0.0882 ps=0.84 w=0.42 l=0.15
X252 a_4610_2589# a_4363_2223# VPWR VPWR sky130_fd_pr__pfet_01v8_hvt ad=0.07665 pd=0.785 as=0.178875 ps=1.26 w=0.42 l=0.15
X253 VGND a_2191_10615# _056_ VGND sky130_fd_pr__nfet_01v8 ad=0.1034 pd=1 as=0.169 ps=1.82 w=0.65 l=0.15
X254 a_5250_4765# a_4977_4399# a_5165_4399# VPWR sky130_fd_pr__pfet_01v8_hvt ad=0.06825 pd=0.745 as=0.05775 ps=0.695 w=0.42 l=0.15
X255 a_9095_6549# a_9379_6549# a_9314_6575# VGND sky130_fd_pr__special_nfet_01v8 ad=0.0684 pd=0.74 as=0.066 ps=0.745 w=0.36 l=0.15
X256 a_5142_3423# a_4974_3677# VPWR VPWR sky130_fd_pr__pfet_01v8_hvt ad=0.1095 pd=1.075 as=0.178875 ps=1.26 w=0.75 l=0.15
X257 _019_ a_6007_8207# VGND VGND sky130_fd_pr__nfet_01v8 ad=0.1352 pd=1.56 as=0.0754 ps=0.81 w=0.52 l=0.15
X258 VPWR a_8447_8916# _006_ VPWR sky130_fd_pr__pfet_01v8_hvt ad=0.11455 pd=1.08 as=0.2054 ps=2.1 w=0.79 l=0.15
X259 VPWR a_9379_5461# a_9386_5761# VPWR sky130_fd_pr__pfet_01v8_hvt ad=0.0864 pd=0.91 as=0.1664 ps=1.8 w=0.64 l=0.15
X260 VPWR a_7239_6031# a_7407_6005# VPWR sky130_fd_pr__pfet_01v8_hvt ad=0.135 pd=1.27 as=0.27 ps=2.54 w=1 l=0.15
X261 a_2111_6549# clknet_1_0__leaf_clk VPWR VPWR sky130_fd_pr__pfet_01v8_hvt ad=0.1664 pd=1.8 as=0.0864 ps=0.91 w=0.64 l=0.15
X262 VPWR VGND VPWR VPWR sky130_fd_pr__pfet_01v8_hvt ad=0.2262 pd=2.26 as=0 ps=0 w=0.87 l=1.97
X263 a_9687_4399# _049_ VPWR VPWR sky130_fd_pr__pfet_01v8_hvt ad=0.06615 pd=0.735 as=0.0567 ps=0.69 w=0.42 l=0.15
X264 a_4750_7913# _074_ a_4668_7913# VPWR sky130_fd_pr__pfet_01v8_hvt ad=0.0441 pd=0.63 as=0.1092 ps=1.36 w=0.42 l=0.15